   10
 DF-KS-SCF000/VTZ,I=VTZ-PP,SN=VTZ-PP  ENERGY=-355.52124843
 C         -0.2667933363        1.3576451630        0.2424643646
 C         -1.4571988104        0.6108981228        0.6498839085
 O         -1.4892711799       -0.5645064347        0.9434585554
 N         -0.0771565278       -3.2918635840       -1.2237731216
 N          0.6854124112       -2.5136702138       -1.2832818494
 C          0.9242272158        0.7794894125        0.2091043199
 N          2.0089294984        0.2688742481        0.3059715351
 H         -0.3557054622        2.3940515731       -0.0526126263
 H         -2.3775203078        1.2257325370        0.6695989250
 H          2.4050764892       -0.2666508239       -0.4608140012
