    9
 DF-KS-SCF000/VTZ,I=VTZ-PP,SN=VTZ-PP  ENERGY=-375.41503417
 C         -0.1130360203        1.5209104660        0.0074334738
 C         -1.1604612795        0.5787668507       -0.3831896921
 O         -1.0188532903       -0.6135970056       -0.5392195365
 N          0.3050587768       -3.8273935437       -1.0682171105
 N          1.1270045216       -3.1291533387       -0.9015801918
 C          1.1261155954        1.1027461512        0.2279577381
 O          2.1959399799        0.7288355802        0.4168487718
 H         -0.3191295318        2.5746928306        0.1265748905
 H         -2.1426387516        1.0641920091       -0.5325268234
