7
b3lypvtz=-312.42701349245 
     C      0.44422598      0.23380841      0.02643027
     N      4.83386468     -0.80237830      0.74881343
     N      3.83606831     -0.51846967      0.89182056
     N     -0.36739179     -0.63217810      0.04497568
     N     -3.64605542      0.44609431     -0.68221610
     N     -4.05772809      1.44646923     -1.02081969
     H      1.30105633      0.85402411     -0.00427415
