   10
 DF-KS-SCF000/VTZ,I=VTZ-PP,SN=VTZ-PP  ENERGY=-355.51571647
 C          1.9245133172       -0.5276263791        0.0906435302
 C          0.6997538725       -0.7451131006       -0.2998719155
 N         -0.4132436545       -0.9604035835       -0.7329060004
 C         -1.6667992526       -1.0115623910       -0.1029620429
 O         -2.2967084921       -0.0457052788        0.2224045536
 N         -0.9600368333        3.4363386516        0.2044492083
 N         -0.1056606761        2.7621859436        0.1238622625
 H          2.5747720632       -1.3513890719        0.3447753405
 H          2.2868587651        0.4862068758        0.1775774292
 H         -2.0434490795       -2.0429316762       -0.0279723754
