12
b3lypvtz=-226242.23490554
C      -1.11571013     -0.92848447     -0.21100616
C       0.19083476     -0.32456106      0.16475046
C       0.56965610      0.95295007     -0.01988784
C      -0.28484485      1.91258449     -0.62730728
N      -0.98620828      2.68402551     -1.12170327
O       1.79695604      1.43471129      0.35654692
O       1.12581976     -1.13316487      0.76448228
H      -0.97159287     -1.75246915     -0.91678238
H      -1.62413556     -1.32880153      0.67167948
H      -1.77046551     -0.19543782     -0.67545804
H       2.28814618      0.70424015      0.75384627
H       0.78154434     -2.02559262      0.86083956
