15
b3lypvtz=-212089.6625615
C       2.89569575     -0.86607712     -0.00439109
C       1.47951186     -0.38850343      0.00331436
N       1.25501544      0.87110048     -0.00784938
N      -0.01525399      1.36275963      0.00095091
C      -1.24499844      0.74308760      0.01009962
N      -1.44587776     -0.51477263      0.00458571
N      -2.78439438     -0.92772515      0.09348462
H       3.08721112     -1.49953882     -0.87536992
H       3.58561238     -0.02382990     -0.02150890
H       3.10325281     -1.47691711      0.87896232
H       0.67805407     -1.11770290      0.02093943
H      -0.02559849      2.36558594     -0.00443902
H      -2.06216494      1.47185069      0.02716429
H      -2.84841897     -1.84150787     -0.33323217
H      -3.41843147     -0.29934742     -0.39766178
