19
b3lypvtz=-192749.51229964
C       3.33230154      0.09298315      0.17362481
N       2.07601990     -0.18671871     -0.48509229
C       1.01618301     -0.12487876      0.20799449
N      -0.22116194     -0.45399412     -0.27858921
C      -1.45840052      0.02787992      0.32657964
C      -2.58308376     -0.97158209      0.05953292
C      -1.83140007      1.44055829     -0.14049667
H       3.85870619      0.89383125     -0.35199587
H       3.98099163     -0.78671807      0.13699975
H       3.22255862      0.38945899      1.22771910
H       1.00708108      0.15979144      1.26898521
H      -0.23907546     -0.62036749     -1.27525280
H      -1.27562765      0.05948670      1.40425881
H      -2.32418974     -1.95784804      0.44365173
H      -2.76976153     -1.06385778     -1.01358096
H      -3.51213881     -0.64596387      0.52894551
H      -1.02502167      2.14500798      0.06613948
H      -2.02073184      1.45238943     -1.21660920
H      -2.73296498      1.79488280      0.36317956
