15
b3lypvtz=-214489.10166128358
C       3.51858914      0.40859370      0.09596221
N       2.27488762      0.65348063      0.30684278
C       1.28998676      0.04511677     -0.38216766
N       0.03510312      0.39341629     -0.06316975
C      -1.15186377      0.04047761     -0.54471952
C      -2.38927308      0.53529127      0.08871211
O      -2.88055181     -0.42151403      1.05071169
H       4.26235868      0.92891059      0.68658219
H       3.86891709     -0.30482860     -0.65398694
H       1.43617611     -0.69057890     -1.16663414
H       0.02837592      1.07154262      0.69613422
H      -1.17391850     -0.70590132     -1.32361228
H      -3.15168754      0.70927551     -0.67809983
H      -2.19370753      1.49732842      0.58248440
H      -3.77339222     -0.16211571      1.30496052
