17
b3lypvtz=-191985.89801006
C       2.83655683     -0.90958055      0.27532510
N       2.29276073      0.20921892     -0.48430832
C       1.08884580      0.80483754      0.08013556
C      -0.16134705     -0.01694977     -0.23817366
C      -1.43042025      0.65073484      0.31755456
C      -2.64054123     -0.11729745      0.04394098
N      -3.58568187     -0.73458956     -0.17797055
H       3.78563031     -1.21639034     -0.16384465
H       2.16523393     -1.76768243      0.22211885
H       3.00523152     -0.68232789      1.33996915
H       3.00227373      0.92040624     -0.59448188
H       1.16188100      0.94070532      1.17385227
H       0.97433355      1.80143028     -0.35389539
H      -0.07483405     -1.01925041      0.18386404
H      -0.24529393     -0.13335469     -1.31919133
H      -1.55516211      1.64800876     -0.11272195
H      -1.34971590      0.78343018      1.39960322
