13
b3lypvtz=-239463.47378405
C      -2.65421164     -0.11642428      0.05530601
O      -1.34589255     -0.71462985      0.02926679
C      -0.31308464      0.14634502     -0.03555276
O      -0.42295783      1.34303302     -0.08196519
C       0.98748356     -0.60382355     -0.02016293
C       2.14276890     -0.00004946      0.66299538
O       2.05247477     -0.00719600     -0.75425191
H      -2.75642161      0.53668806      0.92041828
H      -3.35353398     -0.94463134      0.11547013
H      -2.82269453      0.46412477     -0.84997850
H       0.91045290     -1.68180502     -0.09712995
H       2.01873786      0.97297344      1.12468396
H       2.89578282     -0.65413282      1.09003070
