19
b3lypvtz=-192738.7152775
C      -1.72180759      1.62442126     -0.32747735
C      -0.50980305      1.18471333      0.49596549
C       0.29441143      0.00794342     -0.11056702
C       1.74120955      0.10282233      0.31215412
N       2.77394191      0.17670503     -0.41688811
C      -0.23534589     -1.38140496      0.29542315
N      -1.62685330     -1.59457182     -0.11209538
H      -2.44488770      0.81689685     -0.41735919
H      -2.21435340      2.47821060      0.14158342
H      -1.42004135      1.93176439     -1.33175585
H      -0.83096248      0.91071956      1.50488644
H       0.16169572      2.04010893      0.61101013
H       0.26627725      0.08536301     -1.20453044
H       1.90445762      0.11119802      1.39522948
H       2.51807076      0.16360202     -1.40790017
H      -0.19572217     -1.45940569      1.38540727
H       0.45372970     -2.14076293     -0.09916763
H      -1.69055544     -1.67820455     -1.12070548
H      -1.97436757     -2.46558282      0.27125212
