19
b3lypvtz=-218448.35302064
C      -1.33446698     -0.47770421      1.32600881
C      -0.47403490     -0.04718916      0.13940875
C      -0.80265395      1.39639899     -0.25783002
C      -0.68564449     -1.00595802     -1.03970631
O       0.87694834     -0.14881290      0.64521758
C       1.93973433      0.32538100     -0.15421275
O       3.14005160     -0.13001836      0.39425086
H      -1.07133127     -1.48953260      1.63509020
H      -2.39298166     -0.45806090      1.06365142
H      -1.17077480      0.18959443      2.17210695
H      -0.22659611      1.72123567     -1.12545345
H      -0.59320564      2.07538589      0.56967467
H      -1.85936049      1.48555223     -0.51389689
H      -0.10964438     -0.71352494     -1.91799243
H      -1.73734834     -1.02011135     -1.32992772
H      -0.39568122     -2.01878227     -0.75757615
H       2.00050356      1.41705793     -0.13580297
H       1.81836566     -0.01297119     -1.19198796
H       3.07822075     -1.08804026      0.47897742
