14
b3lypvtz=-250300.82655452
C      -1.08115708     -0.63631913      0.32205244
C      -0.38001947      0.59212828     -0.24348434
O      -1.16560214      1.72201173     -0.14104122
O       0.85006192      0.84857699      0.49507495
C       1.94820765      0.17928529      0.12833377
N       1.96678784     -0.72228609     -0.76003729
O      -1.60810315     -0.26629317      1.59701074
H      -0.37534852     -1.46452556      0.39826619
H      -1.88235062     -0.91278379     -0.37020621
H      -0.11456008      0.43719608     -1.28667330
H      -1.60181282      1.68071924      0.72201861
H       2.80051037      0.53259093      0.71083290
H       2.90880279     -1.07816347     -0.88634149
H      -2.26541669     -0.91213735      1.86574399
