17
b3lypvtz=-191951.40931754
C      -0.81691933     -1.08623578      0.62743448
C      -0.35975617     -0.59296269     -0.76269062
C      -1.53413285      0.39552992     -0.59249291
N      -1.20333156      0.35958597      0.88974506
C       0.14725428      0.98997078      0.85136332
C       0.82771847      0.30882471     -0.38407970
N       2.02132697     -0.45074463     -0.00843639
H      -1.70941015     -1.70886201      0.60310240
H      -0.06871529     -1.49899226      1.30088485
H      -0.24083003     -1.24409209     -1.62889164
H      -1.47198608      1.38199637     -1.05621497
H      -2.51395639     -0.04423043     -0.76966660
H       0.68390102      0.77268151      1.77482162
H       0.04653767      2.06938536      0.74428252
H       1.02001628      1.03859489     -1.18095474
H       2.70828458      0.15869009      0.42073147
H       2.46399860     -0.84913967     -0.82893815
