18
b3lypvtz=-181859.87276034
C       1.31761155     -1.30754956      0.64319799
C       0.57157324     -0.07179613      0.23774287
C       0.69018304      1.36371708      0.81816637
C      -0.47167070      1.37355686     -0.19969314
C       0.43915216      0.58296285     -1.17318989
N      -0.93608780      0.08989351      0.46582051
C      -1.85791873     -0.78003308     -0.25551620
H       1.17812169     -1.50463356      1.70752083
H       0.97225403     -2.17990909      0.08441444
H       2.38587357     -1.18913918      0.45238746
H       0.40093635      1.47052296      1.86116828
H       1.58277199      1.92760999      0.55304733
H      -1.16397610      2.18393999     -0.42207847
H      -0.04173284     -0.00001994     -1.95408838
H       1.31795121      1.09804695     -1.56324663
H      -1.64980986     -0.94545188     -1.32050550
H      -1.87398589     -1.75340503      0.23793215
H      -2.86124691     -0.35831275     -0.17308003
