18
b3lypvtz=-205213.33938047
C       2.71964405      0.05130612     -0.21986370
N       1.62528045     -0.20161262      0.35032197
C       0.50194500     -0.67777312     -0.43817102
C      -0.79739558      0.02159252      0.01437138
C      -0.75894352      1.51964681     -0.30769975
C      -2.00330449     -0.64601815     -0.63706232
O      -0.94220748     -0.16890009      1.42406973
H       3.56282656      0.40331669      0.37032700
H       2.87824393     -0.06586799     -1.29868029
H       0.38854869     -1.74438110     -0.22678411
H       0.66159912     -0.55173412     -1.51731451
H      -0.68912142      1.69637694     -1.38351877
H      -1.66640862      1.99579360      0.06312410
H       0.09575168      1.99675195      0.17320146
H      -1.96744958     -0.55217882     -1.72358077
H      -2.92148909     -0.17778613     -0.28193283
H      -2.03911741     -1.70387782     -0.37533433
H      -0.06931629     -0.01701267      1.81051776
