13
b3lypvtz=-237086.20635728
C      -1.62574896     -0.08359093     -1.08842859
C      -0.70942902      0.48947701     -0.03610021
N      -1.05654060      1.14863154      0.99289734
N       0.64918578      0.30872183     -0.34468294
C       1.46519323     -0.23748465      0.44447258
O       1.17772067     -0.85299408      1.59625675
O       2.78634856     -0.30007948      0.16772303
H      -2.66993700      0.12797786     -0.86390992
H      -1.37536986      0.33270838     -2.06559528
H      -1.48922122     -1.16501097     -1.15876157
H      -2.07035317      1.23586420      1.03019533
H       1.99708144     -1.17946588      1.98874498
H       2.92097016      0.17514518     -0.66281150
