19
b3lypvtz=-171841.18655783
C       2.45850997     -0.00000045      0.07270010
C       0.96146853     -0.00000032      0.36634942
C       0.20391448     -1.22227245     -0.20452566
C      -1.22755512     -0.75578505     -0.40073963
C      -1.88367997     -0.00000005      0.72572346
C      -1.22755489      0.75578573     -0.40073899
C       0.20391486      1.22227252     -0.20452466
H       2.64459333     -0.00000003     -1.00426061
H       2.94667288      0.88116160      0.49464747
H       2.94667258     -0.88116304      0.49464673
H       0.83456366     -0.00000074      1.45192160
H       0.29245701     -2.09594279      0.44623261
H       0.62580079     -1.50036634     -1.17575863
H      -1.86448461     -1.31091216     -1.07647572
H      -2.96496966      0.00000009      0.75093164
H      -1.42344657     -0.00000052      1.70569256
H      -1.86448421      1.31091363     -1.07647459
H       0.62580123      1.50036705     -1.17575741
H       0.29245772      2.09594231      0.44623431
