16
b3lypvtz=-204458.26788565
C       3.29065183      0.24408852      0.12871900
C       2.15895184     -0.44614826     -0.03962509
N       0.89847529      0.07420736     -0.24659627
C      -0.28226082     -0.69111942      0.03725809
C      -1.52344979      0.18597554      0.01714391
C      -2.85219513     -0.52992981      0.05378759
O      -1.43789337      1.39200853     -0.02355771
H       4.23269349     -0.27277752      0.22322475
H       3.30541747      1.32622524      0.15591411
H       2.19075420     -1.53100805     -0.06112047
H       0.77173657      1.06733703     -0.11307968
H      -0.42064805     -1.50693837     -0.68311943
H      -0.26588428     -1.16910656      1.03171637
H      -3.63118864      0.15225829      0.38521168
H      -2.82016256     -1.41022267      0.69712862
H      -3.09561805     -0.87302185     -0.95544246
