12
b3lypvtz=-226260.99340392
N       2.15602170     -0.30026568      0.23950808
C       0.80654433     -0.10197416      0.08402169
C       0.02510710      0.98231478      0.08207333
C      -1.39733034      0.52131617     -0.02036954
C      -1.25231089     -0.98978175     -0.10147109
O      -2.07527111     -1.84300859     -0.21097393
O       0.10334675     -1.29344906     -0.02682100
H       2.72567177      0.51386108      0.07504767
H       2.50968125     -1.13001340     -0.21236784
H       0.35806268      2.00285468      0.15821566
H      -1.93330915      0.87064741     -0.90749395
H      -2.02631409      0.76749852      0.84063092
