12
b3lypvtz=-249565.47649647
N       2.13297883     -0.11206545     -0.19329719
C       0.86525131     -0.46542887      0.07067565
O       0.47920115     -1.60087415      0.30888199
C      -0.10872712      0.74085914      0.08686956
O       0.32481022      1.86506714      0.00050928
C      -1.57938666      0.41722228      0.28338193
O      -2.02161821     -0.68524707     -0.47480959
H       2.35105678      0.86219586     -0.32335804
H       2.85797525     -0.80847201     -0.20114758
H      -1.73390942      0.27219352      1.36388038
H      -2.15385559      1.29174510     -0.01801105
H      -1.46300855     -1.43640749     -0.22652033
