15
b3lypvtz=-170286.7609337
C       1.32998096     -0.78501578      0.05884443
C       1.46599506      0.47719884     -0.35356167
C       0.22480291      1.23721373     -0.04217165
C      -1.14334799      0.60999250     -0.42187465
C      -1.04179135     -0.88485175     -0.67347937
C      -0.07509188     -0.98435667      0.57432086
C      -0.56626695      0.45037643      0.96133266
H       2.03307094     -1.59058207     -0.10030040
H       2.31278178      0.89350048     -0.88028616
H       0.22555783      2.31682342      0.01234662
H      -1.94341348      1.25629097     -0.75508353
H      -0.65685368     -1.24275665     -1.63075347
H      -1.99489552     -1.36564684     -0.45515922
H      -0.24303860     -1.81408449      1.25400770
H      -0.90855104      0.81006289      1.92196986
