16
b3lypvtz=-202024.46073831426
C      -1.74206479      0.00283362     -1.18510995
C      -1.12922144     -0.04963628      0.02287507
C       0.28488281      0.14703262      0.21246976
N       1.13443437     -0.15587829     -0.77061591
C       2.46609357      0.02103629     -0.83590810
N       0.83301456      0.72063753      1.36202949
N      -1.85250124     -0.23172341      1.22321017
H      -1.24946460      0.41598138     -2.05220159
H      -2.77143127     -0.30719764     -1.30038780
H       0.69145887     -0.64525270     -1.53862167
H       2.94325471      0.66221272     -0.11778526
H       2.97937732     -0.36469545     -1.69685195
H       1.63184463      0.20765173      1.72928787
H       0.13451472      0.88238292      2.07179328
H      -1.50759028     -0.98634681      1.80198344
H      -2.84660193     -0.31903822      1.07383314
