15
b3lypvtz=-240208.3764251
C       0.10909346      1.41078877      0.80869658
C      -0.03559717      0.19266514      0.01148775
O      -0.16336721      0.15021030      1.45209729
C       1.19320409     -0.53296850     -0.50821872
O       2.31979454     -0.37208795      0.33205392
C      -1.33336487     -0.08928638     -0.71044440
O      -1.73809899     -1.44396709     -0.56792880
H      -0.70464778      2.12726134      0.84906638
H       1.10175932      1.80468596      0.98990920
H       0.93970847     -1.59026638     -0.64208648
H       1.46569573     -0.13004744     -1.48589057
H       2.03417086     -0.59265934      1.22710869
H      -2.10727520      0.59429932     -0.34608991
H      -1.21160775      0.08036870     -1.78216140
H      -1.86946753     -1.60899645      0.37240047
