18
b3lypvtz=-181906.17846026956
C      -0.78835304      1.72886723      0.49806494
C      -0.10712486      0.36740065      0.47863465
C       1.11451940      0.14808657     -0.47128555
N       0.32314751     -0.91755012     -1.17677206
C      -0.68290219     -0.72057759     -0.40235387
C      -2.00198493     -1.40682546     -0.43116045
C       2.42053249     -0.33762744      0.12110333
H      -1.73712580      1.69078181      1.03763261
H      -0.15938761      2.47247438      0.99176566
H      -0.99310518      2.08214144     -0.51455699
H       0.09180292      0.02889980      1.49974965
H       1.28692109      0.99563212     -1.13969937
H      -2.81191999     -0.68665927     -0.57377711
H      -2.19341632     -1.91840880      0.51585993
H      -2.02757669     -2.13481171     -1.24119406
H       2.25371239     -1.18219831      0.79266658
H       2.91485324      0.45703178      0.68435210
H       3.09740756     -0.66665709     -0.66903000
