11
b3lypvtz=-215397.38800278
C       2.74392996     -0.68042987      0.00004283
C       1.85321065      0.12735474      0.00001165
C       0.90161120      1.17260805     -0.00000346
C      -0.43920326      1.09822168      0.00000664
C      -1.29877368     -0.09942768      0.00001977
O      -2.50642683     -0.03516940      0.00007523
O      -0.63283602     -1.27425751     -0.00006307
H       3.50448885     -1.42110749      0.00005696
H       1.33424424      2.16890345     -0.00002352
H      -1.00928539      2.01617374     -0.00000541
H      -1.30674071     -1.96990171     -0.00006162
