13
b3lypvtz=-213732.13302335
C      -3.24048783     -0.18835258     -0.00001086
C      -1.91970760     -0.37362379     -0.00000373
C      -0.99348258      0.74618525     -0.00001167
N       0.28474928      0.73301845     -0.00000952
O       0.79286900     -0.57927295      0.00000509
C       2.17444312     -0.61177929      0.00000555
N       2.99949306      0.32854046     -0.00000239
H      -3.67418971      0.80462227     -0.00002285
H      -3.92907277     -1.02191918     -0.00000531
H      -1.49980825     -1.36928955      0.00000780
H      -1.40749133      1.75029381     -0.00002408
H       2.47118910     -1.65661398      0.00001970
H       2.52860351      1.23241807     -0.00001272
