17
b3lypvtz=-217677.78785256
C       2.60061469      0.23808256     -0.08759628
O       1.43428941     -0.51465462     -0.34763276
C       0.33223304     -0.16999353      0.47807321
C      -0.33395109      1.17685268      0.09746352
C      -1.81530925      0.81347630     -0.03154712
O      -1.82238365     -0.53860035     -0.47191811
C      -0.79416294     -1.19590156      0.25957130
H       3.38375539     -0.14877223     -0.73707296
H       2.46240311      1.30439763     -0.30106407
H       2.91928683      0.13228652      0.95751034
H       0.66311150     -0.17000418      1.52375681
H      -0.15343511      1.97135413      0.82053745
H       0.06003668      1.48879789     -0.87033651
H      -2.35374577      1.41030787     -0.76591908
H      -2.33038983      0.90427395      0.93563128
H      -1.18331420     -1.54675644      1.22401491
H      -0.44366981     -2.04879562     -0.31764995
