17
b3lypvtz=-217662.58845613
C      -2.25045035     -0.46074202     -0.58295762
O      -1.70973629      0.43978340      0.36493809
C      -0.49765233      0.00802873      0.95616944
C       0.71396223      0.13464890      0.04659498
C       0.98288400      1.50961941     -0.50801709
C       1.24516841     -1.06004031     -0.62251834
O       1.86132974     -0.55922121      0.56825326
H      -1.62669348     -0.54686377     -1.47916726
H      -2.38102581     -1.46082528     -0.15133305
H      -3.22494127     -0.07089075     -0.87140625
H      -0.57699574     -1.02791215      1.30801071
H      -0.34750893      0.64942331      1.82726076
H       1.14419213      2.21912420      0.30641727
H       0.13063006      1.86076919     -1.09059153
H       1.86978368      1.50545134     -1.14010053
H       1.83302121     -0.94795330     -1.52845493
H       0.74013273     -2.01518967     -0.51323992
