14
b3lypvtz=-201298.66007551
C       1.51999855      1.59801151     -0.12154986
C       0.66841989      0.41258994      0.34519773
C       1.37617492     -0.86303684      0.09056230
N       1.91928603     -1.85156294     -0.13660183
N      -0.65035014      0.43508393     -0.26458127
C      -1.76442679     -0.08423754      0.36956872
N      -2.89573103     -0.37364946     -0.12382151
H       2.50225551      1.57495833      0.34811625
H       1.66167242      1.56720245     -1.20223783
H       1.01706538      2.52714111      0.14059851
H       0.52326301      0.48514587      1.42496771
H      -0.66486452      0.42183811     -1.27443266
H      -1.61785151     -0.20575625      1.44341199
H      -2.92537574     -0.23211921     -1.13495524
