13
b3lypvtz=-237023.55313195
C      -0.41733650      1.10206923      1.89249669
C      -0.18764389      0.40528234      0.77935168
C      -1.24676199      0.08650482     -0.24949418
O      -1.48303247     -1.30432628     -0.41005518
N       1.14997251     -0.02078307      0.57545221
N       1.32839316     -0.70007932     -0.43926279
O       2.63481501     -1.06810977     -0.59073423
H       0.38614570      1.32148355      2.58133243
H      -1.40799018      1.46173226      2.12965267
H      -0.97176427      0.54989222     -1.20432675
H      -2.18910243      0.52577818      0.07371682
H      -0.70421319     -1.67828177     -0.83712411
H       3.10851854     -0.68106238      0.17289473
