17
b3lypvtz=-194355.55338923
C      -2.44544986     -0.66972113     -0.17259853
C      -1.15916007     -0.18285144      0.47471175
C      -0.76818455      1.29135035      0.11373059
C       0.50672284      0.78342880     -0.55576837
C       1.32783726     -0.00026290      0.41012283
O       2.58540793     -0.36752790     -0.09315750
C       0.12929963     -0.66429405     -0.20346894
H      -2.58765573     -1.74118288     -0.01375377
H      -3.31243953     -0.15212958      0.24404135
H      -2.43302247     -0.49123049     -1.25039030
H      -1.19003529     -0.38466260      1.55012296
H      -1.47298623      1.73030466     -0.59186439
H      -0.62976499      1.98412853      0.94716242
H       0.96355215      1.16343734     -1.45827449
H       1.32108541      0.26340200      1.46845058
H       2.80373934     -1.24254038      0.24297735
H       0.24056117     -1.55819434     -0.80346652
