14
b3lypvtz=-203685.35365467
C      -1.75682974     -0.06459720     -0.27307522
C      -0.30947473     -0.04172011      0.10155254
C       0.46942759      1.14144887      0.57348055
C       0.90802636      0.39893247     -0.69397770
C       1.55744611     -0.89422880     -0.24660479
O       2.62620488     -1.42078507     -0.37493586
N       0.39678775     -1.29266103      0.44158584
H      -2.38443325     -0.25325933      0.60134199
H      -2.06022655      0.89352334     -0.69598613
H      -1.95153100     -0.84874829     -1.00555866
H       1.08045241      1.08166096      1.46596523
H       0.03046832      2.11527642      0.39174747
H       0.97157302      0.87943001     -1.65731904
H       0.42210880     -1.69427223      1.37178378
