17
b3lypvtz=-192000.19652879
C       2.01355763     -0.70646701      0.65554589
C       1.13747535     -0.20218918     -0.49373110
C       0.72090598      1.27924142     -0.35391018
C      -0.63901332      1.22784585      0.35906640
C      -1.19692347     -0.14281691      0.02037707
N      -2.40030763     -0.48853322      0.25343334
N      -0.16634206     -0.86007264     -0.55220920
H       1.54402043     -0.51543327      1.62238629
H       2.98692602     -0.21178659      0.64254076
H       2.18607921     -1.78151529      0.57274511
H       1.66869325     -0.36324416     -1.43513267
H       0.60653493      1.71758927     -1.34581504
H       1.46846704      1.86184951      0.18240674
H      -1.32739969      2.01202128      0.05282201
H      -0.53600809      1.29603138      1.44391912
H      -2.57698412     -1.45454825     -0.02202635
H      -0.23712746     -1.85982519     -0.64849418
