15
b3lypvtz=-214515.38263029
N       2.98020712      0.12593542      0.38428556
C       1.99844539     -0.23930699     -0.32176191
C       0.65157472     -0.72916411      0.14356607
C      -0.51046927      0.02873650     -0.50799821
O      -0.45147741      1.37114218     -0.04988019
C      -1.83646895     -0.63382959     -0.17842479
N      -2.76363125     -0.15174555      0.52954430
H       2.75327840      0.07714051      1.38048868
H       2.13196184     -0.21714583     -1.40782180
H       0.55792585     -1.78972338     -0.11322444
H       0.56863702     -0.64234105      1.22912859
H      -0.37968810     -0.01173163     -1.59881916
H      -0.98976308      1.92587223     -0.62348830
H      -1.97247420     -1.63102412     -0.60558112
H      -2.48880008      0.77473840      0.87062271
