17
b3lypvtz=-215281.12676232
C      -2.94888759      0.28034176     -0.11332315
O      -1.59145753      0.13072984     -0.46816550
C      -0.89911968     -0.80018634      0.38649252
C       0.51737411     -0.98434047     -0.03568105
C       1.42979006      0.00756551      0.01720442
N       2.80548746     -0.18402278     -0.12629993
N       1.10717596      1.34163703      0.22214898
H      -3.06509071      0.64489366      0.91652196
H      -3.49556535     -0.66736467     -0.20271640
H      -3.38901252      1.00587469     -0.79594187
H      -0.96714180     -0.41626230      1.41732809
H      -1.42444475     -1.76209033      0.36677035
H       0.81998773     -1.95167117     -0.41183269
H       3.06315747     -1.13652879     -0.33307999
H       3.23941580      0.47034967     -0.76310455
H       0.11887487      1.53468023      0.26517235
H       1.66652447      1.82336646      0.90982946
