14
b3lypvtz=-203697.19288846
C      -1.18891433      1.08542785      0.26191600
C      -0.05311076      0.12487055      0.02218913
N      -0.16406644     -1.14485284      0.01512994
C      -1.33881778     -1.86426216      0.10691253
O      -2.24121114     -1.84754989     -0.69803109
C       1.27308601      0.74348940     -0.19859842
C       2.40143855      0.05649160     -0.35338328
H      -0.96265051      1.71916811      1.12280501
H      -1.29170458      1.74877845     -0.60013883
H      -2.13505667      0.57691457      0.41832686
H      -1.33520376     -2.55696269      0.96738590
H       1.29017588      1.82695895     -0.22912388
H       3.34578935      0.55650481     -0.51903942
H       2.40024618     -1.02497671     -0.31635043
