12
b3lypvtz=-247097.63078171
C      -2.04096533     -0.52587931      0.27046830
N      -0.62981529     -0.59149114     -0.08307982
C       0.02078131      0.46926931     -0.12226364
O      -0.44662148      1.71302210      0.13404360
O       1.36133878      0.58010679     -0.43881089
N       1.99171648     -0.66483622     -0.73361402
N       3.15657816     -0.43046619     -0.99363872
H      -2.45319928     -1.53278979      0.25066683
H      -2.19163050     -0.11221639      1.27169526
H      -2.60895412      0.09292384     -0.43011820
H       0.27231996      2.34980686      0.02934215
H       3.56845130     -1.34744986     -1.19771504
