9
b3lypvtz=-209845.01873493
C      -0.14154334      1.02537612     -0.21286074
C       0.54376298     -0.17169312      0.07370388
N      -0.35389259     -1.15715304      0.20239615
N      -1.49605848     -0.53908996     -0.00301208
N      -1.44028684      0.76155441     -0.25592237
C       1.93905917     -0.38610835      0.21815115
N       3.07829939     -0.51471925      0.32694381
H       0.24402299      2.01530839     -0.38003318
H      -2.37336328     -1.03347520      0.03063339
