17
b3lypvtz=-194369.40734887
C      -1.57622346      0.52223097     -0.13944741
C      -1.24028722     -0.85475316      0.41375374
O      -0.15110152     -1.45721988     -0.28098438
C       0.98592285     -0.65797375     -0.46628780
C       1.69858061      0.01844801      0.66671959
C       0.92673548      0.84188221     -0.35407486
C      -0.39781780      1.48873788      0.04091809
H      -2.46833194      0.90839726      0.35872444
H      -1.81538418      0.41700649     -1.20088199
H      -2.07268442     -1.54630647      0.28843351
H      -1.02141216     -0.79304862      1.48869422
H       1.59123863     -1.08982825     -1.25128248
H       1.27072448     -0.05406890      1.65807785
H       2.77979552      0.04145254      0.64960091
H       1.52257247      1.39759532     -1.06645785
H      -0.56040336      2.38247797     -0.56306335
H      -0.35713397      1.82514938      1.08069277
