18
b3lypvtz=-233530.65672323
C       2.11900361      0.58858221     -0.35784136
C       0.76535929     -0.02550695     -0.00754412
C       0.80208437     -0.62775529      1.40280748
O       0.56839610     -1.06920178     -0.97190240
C      -0.33787277      1.04604210     -0.16152439
C      -1.72601318      0.65339155      0.29957659
F      -2.16233101     -0.51649792     -0.35718350
H       2.40363250      1.35517072      0.36423255
H       2.08803393      1.03656734     -1.35155247
H       2.88403624     -0.18787039     -0.36069961
H       0.93330362      0.14135682      2.16754974
H      -0.11354320     -1.17790406      1.62324249
H       1.63308759     -1.32903216      1.47561585
H      -0.34936296     -1.35794703     -0.91611251
H      -0.37446470      1.33524192     -1.21409967
H      -0.06010704      1.93939656      0.40712815
H      -2.45271803      1.43300442      0.06772947
H      -1.76393836      0.44073694      1.36828371
