16
b3lypvtz=-204427.46940691
C      -3.11739198      0.57643466     -0.19566257
N      -2.11661344     -0.43335672      0.10214565
C      -0.79722325     -0.06894195      0.26325824
C       0.27767540     -0.84314130      0.06292321
C       1.66117899     -0.42659068      0.36431551
C       2.14405940      0.94886177      0.21372494
O       2.51611281     -0.03919369     -0.74369243
H      -3.03712530      0.99128429     -1.20833152
H      -3.02428892      1.39895300      0.51461319
H      -4.11235854      0.14883454     -0.07641556
H      -2.25534184     -1.31303075     -0.37153219
H      -0.67186752      0.94095737      0.64024143
H       0.15004986     -1.85775764     -0.30379775
H       2.19885699     -1.05160501      1.07468877
H       2.94589306      1.30999022      0.85159707
H       1.47113327      1.71657491     -0.15540798
