13
b3lypvtz=-237084.34032609
N      -0.79438511     -1.48906825     -0.76244523
C      -0.64243098     -0.15461995     -0.42311081
N      -1.80033225      0.57831262     -0.47285449
C       0.54336444      0.44176860     -0.08583086
O       0.56003123      1.81982202      0.01310522
C       1.76624696     -0.21909483      0.22396450
O       2.78125156      0.41167282      0.51881338
H       0.04325233     -2.04539678     -0.71744001
H      -1.58185058     -1.94168547     -0.31879280
H      -1.66921161      1.57154789     -0.36010790
H      -2.45561856      0.32061435     -1.19428581
H       1.47263960      2.02964934      0.27479055
H       1.77714299     -1.32342237      0.21199425
