17
b3lypvtz=-194362.33022172
C      -1.85237625     -1.64427884      0.20853844
C      -1.21266762     -0.70199208     -0.17270149
C      -0.41419792      0.45284891     -0.58585406
C      -1.06776833      1.76962853     -0.13409195
C       1.04060143      0.32824283     -0.05343395
C       1.80925710     -0.82725377     -0.68337394
O       1.06599108      0.26132076      1.36784581
H      -2.43153244     -2.47474555      0.52718019
H      -0.35830758      0.44881493     -1.67943834
H      -0.50386022      2.61888100     -0.52300566
H      -1.07733450      1.83264067      0.95263762
H      -2.09236670      1.84120672     -0.49664572
H       1.54520501      1.26676253     -0.29317156
H       1.87639737     -0.71168738     -1.76714025
H       1.32041500     -1.78086496     -0.47492345
H       2.81951342     -0.86215873     -0.27670373
H       0.57293713     -0.52419759      1.63528503
