19
b3lypvtz=-192745.94151973
C      -1.76422202     -0.11676256      1.27009370
C      -0.98914187     -0.48464006     -0.00008489
C      -1.76432813     -0.11640264     -1.27009813
N       0.36977131      0.06806663     -0.00002528
C       0.57889562      1.50258534      0.00018825
C       1.46117481     -0.75986132     -0.00010275
N       2.70434250     -0.46924632     -0.00001918
H      -1.21083041     -0.41506364      2.16084248
H      -2.73254838     -0.61974752      1.28279085
H      -1.95281486      0.95681401      1.33004232
H      -0.85305398     -1.56759098     -0.00025078
H      -2.73260854     -0.61947248     -1.28293427
H      -1.95304932      0.95716208     -1.32968042
H      -1.21094959     -0.41436441     -2.16096999
H      -0.37788985      2.01713957      0.00023576
H       1.13579169      1.82513187      0.88528623
H       1.13584305      1.82538055     -0.88478769
H       1.18707210     -1.81500458     -0.00025527
H       2.87066987      0.53521444      0.00013208
