15
b3lypvtz=-216917.4001163
C      -2.39356634      0.58697757      0.57906943
C      -1.67162472     -0.72045800      0.67767203
C      -0.40536403     -0.93737287      0.34049622
O       0.39601235      0.03781517     -0.19318231
C       1.78826995     -0.19295760     -0.10499314
C       2.50047462      0.83087219     -0.96338592
O       3.69597649      0.94458395     -0.99114573
H      -2.84870319      0.85483265      1.53588719
H      -1.72387682      1.39143401      0.28111236
H      -3.20529942      0.53500322     -0.15199870
H      -2.22207884     -1.57895137      1.04192160
H       0.05895640     -1.91344398      0.43912502
H       2.05183301     -1.19311229     -0.47304689
H       2.15031756     -0.11016220      0.92576826
H       1.82877299      1.46483956     -1.57539942
