15
b3lypvtz=-191185.3034765
C      -2.24026223      0.86265796      0.28405040
N      -0.88605019      0.49951327      0.67725331
C      -0.37913736     -0.66039089     -0.04236589
C       1.03258653     -1.01327649      0.37105101
N       1.31700236     -2.21366062      0.69128493
C       2.00113736      0.05339229      0.34204119
C       2.80545709      0.94620160      0.30928164
H      -2.54152176      1.76738851      0.81194569
H      -2.93083136      0.06683548      0.57029802
H      -2.36154440      1.03570813     -0.79727255
H      -0.26413493      1.28668881      0.53721473
H      -0.38615570     -0.52286541     -1.13963707
H      -1.00270027     -1.52646552      0.17927934
H       2.30794082     -2.30572137      0.91660422
H       3.52821405      1.72399425      0.28611151
