15
b3lypvtz=-271146.65282963
C      -0.96102180     -1.07084173     -0.33586330
C      -0.08055087     -0.13172851      0.49235017
C       1.37831807     -0.09332106      0.00671953
O       1.54813700      0.25089898     -1.35932681
C      -0.72299906      1.24260721      0.60308606
F      -0.87545844      1.83973174     -0.61606135
F       0.05524297      2.07614948      1.36542945
H      -1.04982795     -0.72010133     -1.36423148
H      -0.54354604     -2.07898192     -0.34615848
H      -1.96982070     -1.13755704      0.07480293
H      -0.04486737     -0.50463417      1.52200255
H       1.83130120     -1.06861759      0.22297784
H       1.92987239      0.65634889      0.57160474
H       1.21570830     -0.46404762     -1.90897654
H      -1.71028772      1.20399467      1.07184469
