17
b3lypvtz=-217661.02281999
C       2.14034429     -0.02542581      0.17322677
O       1.02392495     -0.81214061     -0.20165712
C      -0.26816606     -0.24531231     -0.11432958
C      -1.21341119     -1.29537043     -0.66619745
C      -0.52013454      1.17984008     -0.67265223
O      -1.14033582      1.58428192      0.56918884
C      -0.73016693      0.36676753      1.23265341
H       3.00536945     -0.68372472      0.11833360
H       2.30152601      0.81682552     -0.50595949
H       2.06112601      0.35880341      1.19423642
H      -1.13310477     -2.21422158     -0.08405111
H      -0.95835397     -1.52195030     -1.70215064
H      -2.24403065     -0.94266480     -0.62617784
H      -1.20571060      1.25293399     -1.51942857
H       0.37757171      1.76552595     -0.88409230
H       0.06664106      0.54880342      1.95812625
H      -1.56328895     -0.13297126      1.73123105
