15
b3lypvtz=-214499.71956084
C      -1.89015513     -0.79394811      0.21650931
C      -1.10785827      0.44525608     -0.07663933
C      -1.63653849      1.65323662     -0.26672870
O       0.26576514      0.35079982     -0.13616667
N       0.76506070     -0.98097085     -0.08285853
C       2.04187715     -0.94668023     -0.18065239
N       2.84272783      0.15377761     -0.26552835
H      -2.94750967     -0.54434876      0.27495892
H      -1.74091428     -1.54753562     -0.55682172
H      -1.57323015     -1.24474304      1.15778531
H      -1.01588404      2.51149078     -0.48052569
H      -2.70345812      1.79441167     -0.20054705
H       2.53189385     -1.91163320     -0.15167112
H       3.77563154      0.03238593     -0.61574569
H       2.39259193      1.02850129     -0.47677635
