13
b3lypvtz=-213764.62958037
C      -2.72812776      0.87058700     -0.35418822
C      -1.84836240     -0.04989069      0.03980855
N      -0.47897333      0.10928377     -0.13897450
C       0.29163158     -0.82232624      0.26889488
N       1.68207251     -0.81528274      0.16457148
C       2.25901245      0.18179119     -0.37502368
O       3.58469718      0.23428531     -0.49688443
H      -3.78812579      0.72519813     -0.20479552
H      -2.39710678      1.78243147     -0.83187183
H      -2.19223281     -0.96774302      0.52150328
H      -0.09305639     -1.72730035      0.74740608
H       1.76660840      1.06224770     -0.77921225
H       3.94196313     -0.58328153     -0.11425434
