16
b3lypvtz=-202054.28393555
N       3.47927458      0.09585825     -0.07132260
C       2.15624746      0.41462370      0.05627551
N       1.22985827     -0.45627079     -0.03228363
C      -0.08926557     -0.01608438      0.04460530
C      -1.12474732     -0.85537317     -0.02047344
C      -2.57041552     -0.46512699      0.05851705
N      -2.78004732      0.98345928     -0.00527714
H       4.16169993      0.72733590      0.30905219
H       3.70850227     -0.88472771     -0.03531761
H       1.96654405      1.48440127      0.19986043
H      -0.26973319      1.05164962      0.17487564
H      -0.91830979     -1.91340255     -0.14028498
H      -3.11928430     -1.01982387     -0.71913321
H      -2.98511160     -0.81574542      1.01127017
H      -2.54310147      1.32742356     -0.92916964
H      -3.75624648      1.20319830      0.14869695
