16
b3lypvtz=-204460.06965987
C      -1.78773317     -1.48295046     -0.46613893
C      -1.43672841     -0.48434780      0.65078676
C      -0.71591193      0.72393020      0.10123058
O      -1.28751714      1.75429938     -0.19289754
C       0.76848710      0.65222401     -0.11967421
N       1.44453646     -0.36863618      0.19274344
C       2.87222615     -0.35674988     -0.04622418
H      -0.88737935     -1.87392532     -0.93933759
H      -2.40576045     -1.01065844     -1.23059219
H      -2.34464182     -2.32474099     -0.05395050
H      -0.80808145     -0.97745286      1.39208527
H      -2.34698209     -0.12430325      1.12988315
H       1.19831337      1.55900337     -0.56436926
H       3.38776075     -0.53663822      0.89927967
H       3.23885069      0.57745382     -0.48795255
H       3.12509328     -1.19105838     -0.70368092
