17
b3lypvtz=-217691.36798588
O       2.48391679     -0.60157038     -0.08299784
C       1.20334063     -0.12402380     -0.46633492
C       0.72275982      1.12499183      0.31020581
C      -0.82371305      1.05241418      0.31464570
C      -1.18970495     -0.23746835     -0.45783090
O      -2.41630418     -0.83368466     -0.06421624
C       0.05197262     -1.12155715     -0.31356107
H       2.45292464     -0.83824487      0.85029553
H       1.31749441      0.12490737     -1.52372970
H       1.11686040      1.07506410      1.32828429
H       1.11020890      2.04378504     -0.12832700
H      -1.29783416      1.93026868     -0.12266325
H      -1.20575709      0.96750930      1.33497913
H      -1.33519881     -0.00165472     -1.51436109
H      -2.35536379     -1.06599420      0.86872036
H       0.08847595     -1.94154157     -1.02922627
H       0.07592187     -1.55320079      0.69601745
