15
b3lypvtz=-191173.67590793
C       2.46724225     -0.25329376      0.64101865
N       1.21288315     -0.35767302      0.72261350
C       0.40745038      0.26632055     -0.30284658
C      -0.72441252      1.21628478      0.17306080
N      -1.78546039      0.42332836     -0.54263807
C      -0.70548832     -0.58500744     -0.90964274
C      -1.74624129     -0.91126571      0.07660237
H       3.09433905     -0.71043455      1.40322470
H       2.97698552      0.28241682     -0.17037583
H       1.02149548      0.73687011     -1.07994397
H      -0.86986563      1.27300241      1.25244725
H      -0.65080251      2.21835747     -0.24323108
H      -0.66141063     -1.04493952     -1.88849475
H      -1.48383817     -1.00268346      1.12409922
H      -2.55287638     -1.55128305     -0.25589347
