15
b3lypvtz=-214549.66152129
C      -2.96518044     -0.18882661      0.00526258
N      -1.59967434     -0.66667415     -0.00717664
C      -0.51609978      0.17450199     -0.00450470
O      -0.64286157      1.39529842     -0.00012396
C       0.78751097     -0.50901224     -0.01224622
C       1.91465115      0.22285456     -0.00079737
N       3.19769168     -0.23948664      0.04623549
H      -3.51995289     -0.54281550     -0.86705144
H      -3.49431072     -0.50703356      0.90715726
H      -2.93032403      0.89724572     -0.01608652
H      -1.43320551     -1.65731496      0.00120623
H       0.82338773     -1.59302106     -0.02043768
H       1.81038069      1.30155971      0.00884439
H       3.94105576      0.38680714     -0.20420948
H       3.37572829     -1.21235081     -0.13681093
