15
b3lypvtz=-216929.32179229
C      -2.17018454     -0.54220019      0.10629874
C      -0.68117169     -0.47983663      0.08392608
C       0.20389050     -1.40868362     -0.25640879
C       1.59631699     -0.87202209     -0.15126606
O       1.43539101      0.44369762      0.39163133
C       0.06332085      0.79114822      0.41202705
O      -0.26493741      1.76177446     -0.56558759
H      -2.59225291      0.21022487     -0.56313646
H      -2.53392962     -1.52304834     -0.19782117
H      -2.55757758     -0.32991724      1.10706839
H      -0.01895571     -2.41304392     -0.58863789
H       2.10187703     -0.82709374     -1.12348370
H       2.23076394     -1.44982352      0.52785670
H      -0.15829719      1.19386397      1.40790428
H       0.16255932      2.58975114     -0.32268692
