12
b3lypvtz=-202924.96402961
C      -2.56631374      1.04466974      0.17143858
C      -2.32761484     -0.22814630     -0.10619595
O      -1.10684404     -0.86441062     -0.06730202
C       0.02430400     -0.13958261     -0.18851473
C       1.19537743     -0.62298888      0.23958518
C       2.40436678      0.08955599      0.04339742
N       3.39920668      0.65672999     -0.10112630
H      -3.57770097      1.41348477      0.09547949
H      -1.80131694      1.73830629      0.48810854
H      -3.09802568     -0.93526440     -0.37677407
H      -0.07075498      0.81817212     -0.68604934
H       1.24440230     -1.57968209      0.74229819
