17
b3lypvtz=-171036.90734511
C      -1.09347361      1.24329728      1.03479481
C      -0.44724537      0.20816004      0.16151024
C      -0.54730970      0.05486230     -1.39905178
C       0.39388124     -1.10661360     -0.94683704
C      -0.62136129     -1.35254816      0.21426421
C       1.03349834     -0.08766551     -0.02900543
C       2.21611481      0.32763246      0.38615992
H      -0.82971365      1.08851647      2.08305871
H      -0.77125793      2.24762513      0.75218555
H      -2.18136502      1.20329765      0.95218950
H      -0.09982130      0.84624496     -1.99842367
H      -1.52412330     -0.24868561     -1.78009758
H       0.87748885     -1.85035410     -1.57350144
H      -0.24233126     -1.85796841      1.10121543
H      -1.60186051     -1.72670287     -0.08600799
H       2.30788294      1.13877149      1.09710806
H       3.13099678     -0.12786949      0.03043845
