15
b3lypvtz=-216937.13941199
C       1.17644073     -0.66443126     -0.43137413
C       1.25404676      0.80748682      0.00289319
O       0.07179019      1.51378519     -0.33447134
C      -1.06652253      0.98945756      0.32859909
C      -1.33693771     -0.46717298     -0.07917884
C      -0.09065469     -1.31473336      0.09010718
O      -0.10361821     -2.40698591      0.60903989
H       1.15133477     -0.70332821     -1.52485121
H       2.04010838     -1.23186041     -0.08577557
H       2.07436668      1.31722777     -0.50021555
H       1.43015785      0.86764530      1.08560898
H      -0.92798591      1.05205060      1.41666947
H      -1.90520602      1.62955597      0.05880010
H      -2.14979822     -0.90302983      0.50109239
H      -1.61752207     -0.48566725     -1.13694364
