17
b3lypvtz=-191978.15299948
C       2.71981664     -0.91437653     -0.01125697
C       1.57950815     -0.04676978     -0.48458496
C       1.31177599      1.29026621      0.15105451
C       0.35062650      0.14333285      0.36829727
N      -0.91551560      0.20347297     -0.27574502
C      -1.92726412     -0.25596046      0.33222566
N      -3.20563417     -0.16767410     -0.17261918
H       3.66228475     -0.61875822     -0.47880197
H       2.85275899     -0.83558938      1.06992593
H       2.54568284     -1.96664895     -0.24857444
H       1.36727636     -0.09919509     -1.54536695
H       0.96397280      2.09516554     -0.48038705
H       1.93232179      1.59474839      0.98411394
H       0.37570278     -0.32363640      1.35390569
H      -1.87862829     -0.71503376      1.32678286
H      -3.86556132     -0.86293093      0.13248515
H      -3.26408210      0.07244163     -1.15042948
