12
b3lypvtz=-247112.66239465197
C      -1.73273607      0.56217184      0.06126842
O      -1.66857859     -0.84403296      0.27455609
C      -0.46178452     -1.41029162      0.46085564
N       0.67705199     -0.78757096      0.45435677
O       1.83846784     -1.31276076      0.63032537
N       3.76120861      1.76567948      0.17392740
N       2.69863025      1.51823760      0.17005062
H      -2.78519293      0.79984430     -0.06103670
H      -1.18851879      0.84982277     -0.84327740
H      -1.33395719      1.10902461      0.92074934
H      -0.47251239     -2.47493637      0.62662270
H       0.66792177      0.22481209      0.29401704
