14
b3lypvtz=-203702.66253087
C       2.46462677     -0.91872918     -0.15222511
C       1.26944908     -0.03703399      0.02354460
O       1.45039665      1.28435436     -0.30291880
C       0.08502959     -0.44887261      0.47407621
C      -1.10677433      0.45703712      0.64668219
C      -2.28795482     -0.02719738     -0.07063992
N      -3.21370742     -0.42141527     -0.62895937
H       3.29864791     -0.56866009      0.46290285
H       2.24089673     -1.94558866      0.12678530
H       2.79665578     -0.91423343     -1.19495399
H       2.32554907      1.41029321     -0.68006795
H      -0.03496501     -1.49053637      0.73232652
H      -0.87320612      1.46092102      0.29207674
H      -1.37950187      0.54862627      1.70307372
