20
b3lypvtz=-205979.7361098
C      -1.75249472     -0.89571283      0.93698056
C      -1.37254527     -0.32604001     -0.43796424
N      -1.72862817      1.08693807     -0.62175679
C       0.11082649     -0.54094516     -0.79274863
C       1.14242557     -0.16536626      0.26776351
C       2.56845298     -0.38715707     -0.22481562
O       0.93647862      1.21340215      0.62062408
H      -1.47255289     -1.94866375      1.03430704
H      -2.83196257     -0.82716917      1.08677430
H      -1.27111876     -0.33593018      1.74039906
H      -1.94305026     -0.88202324     -1.18912731
H      -1.15399881      1.66149558     -0.01574192
H      -2.69651907      1.24020516     -0.36253039
H       0.31989818      0.02425130     -1.70415482
H       0.26435548     -1.59836755     -1.02436308
H       0.97910901     -0.78494927      1.15823423
H       3.29423222     -0.11347288      0.54528653
H       2.76373071      0.22039486     -1.10978450
H       2.73696145     -1.43553181     -0.47823360
H       1.59031680      1.46212906      1.28087559
