17
b3lypvtz=-240995.58579252
O       1.60436915      1.10019782      0.70402919
C       1.54008118     -0.02596720     -0.19467202
C       0.64561484     -1.09983485      0.40703557
C      -0.71599450     -0.63402168      0.95718724
C      -1.52972141      0.30507102      0.06654907
O      -1.12214572      1.64819612      0.13896992
O      -1.45733183     -0.19346499     -1.26486467
H       2.26766800      1.71692460      0.38065382
H       2.54339681     -0.43153013     -0.35240247
H       1.13795991      0.29408020     -1.15831610
H       1.17992646     -1.59772755      1.21961302
H       0.48397968     -1.84569334     -0.37291738
H      -0.58395835     -0.13032077      1.91552624
H      -1.31625528     -1.52490141      1.15180416
H      -2.57555722      0.30636997      0.39054676
H      -0.17281072      1.68107914      0.34454794
H      -1.92912100      0.43154304     -1.82529027
