12
b3lypvtz=-200512.71653275
C       2.54386906      0.38912640      0.86381174
C       1.70218177     -0.28206887      0.33142256
C       0.64084158     -1.04634342     -0.29119953
N       0.95037038     -2.14679630     -0.85803167
N      -0.67006959     -0.55946980     -0.24979407
C      -0.92781457      0.55743622      0.32519299
N      -2.18031548      1.04851631      0.38564694
H       3.31914412      0.95043599      1.32324095
H       0.09837591     -2.55872442     -1.24288762
H      -0.17013141      1.18211116      0.80221669
H      -2.37275839      1.93036496      0.82139752
H      -2.93369336      0.53541175     -0.03990277
