13
b3lypvtz=-213745.92901366
O       2.63104488     -0.79013666      0.13757811
N       1.98654384      0.43565529     -0.21819819
C       0.71515751      0.25962609     -0.17308744
C      -0.26959599      1.30728826     -0.43888604
C      -1.49049115      0.82420632     -0.20109094
C      -1.40903250     -0.61033661      0.24556755
N       0.01415241     -0.88718554      0.12483186
H       3.56012899     -0.55050947      0.08790264
H       0.00086599      2.29921463     -0.76155557
H      -2.42569256      1.35270973     -0.30402445
H      -1.77365349     -0.73020258      1.27419003
H      -2.00879238     -1.27400668     -0.38767568
H       0.46946445     -1.63642278      0.61464811
