9
b3lypvtz=-233133.02292041
C      -1.41678567     -0.20099230     -0.38656426
N      -0.27829459     -0.77295203     -0.74345503
C       0.76383047     -0.24892694     -0.11666110
N       0.71009268      0.74718715      0.78213229
N      -0.46400543      1.25306409      1.07390754
N      -1.55713123      0.79223238      0.49722788
O       1.96122387     -0.74552846     -0.39673228
H      -2.32913317     -0.56203135     -0.84630398
H       2.61020305     -0.26205253      0.13644893
