9
b3lypvtz=-212181.57165276
C       2.31591008     -0.20450432      0.85693438
C       1.20334617     -0.24832808      0.41097008
C      -0.11378566     -0.25147909     -0.10535170
C      -1.03297085      0.83785515     -0.20011108
N      -2.13598650      0.41711967     -0.73466104
O      -1.93736160     -0.91790074     -0.98256979
N      -0.69648391     -1.32025733     -0.59478178
H       3.30222024     -0.17614035      1.24967897
H      -0.90488796      1.86363509      0.09989196
