15
b3lypvtz=-219520.68647816
C       0.62058604     -1.62671067      0.69097048
C       0.81199588     -0.44970743      0.09595043
C       2.08632392     -0.11624573     -0.63770599
C      -0.23187218      0.60476179      0.12758020
N       0.23144962      1.91149275      0.40804618
C      -1.51298005      0.39423263     -0.18402314
F      -1.97535847     -0.79290214     -0.64168528
H       1.37647047     -2.40073851      0.65307817
H      -0.29383374     -1.85407002      1.22037117
H       2.77812086     -0.95709942     -0.60986752
H       1.87632489      0.12863176     -1.68189902
H       2.58096503      0.75737250     -0.21065341
H       0.75324873      1.96330732      1.27405327
H      -0.50394649      2.60479308      0.41236613
H      -2.28295951      1.15393909     -0.16061467
