16
b3lypvtz=-204442.68863264
C      -2.19254345     -0.04812908      0.17345841
C      -0.89312799     -0.74188800     -0.21244004
N       0.25628873     -0.15004893      0.45024137
C       1.58321467     -0.75332556      0.17905584
C       2.13002183      0.66382754      0.00218851
O       3.21623557      1.15058251     -0.08343484
C       0.69639761      1.19742623      0.00753143
H      -3.04188488     -0.52189591     -0.32074132
H      -2.34582907     -0.09558520      1.25191204
H      -2.18341563      1.00324572     -0.12062680
H      -0.93732501     -1.79319073      0.08150130
H      -0.77242635     -0.72363901     -1.31142374
H       2.00122889     -1.35730228      0.98619514
H       1.64015043     -1.31904932     -0.76273134
H       0.47110014      2.02002893      0.68758104
H       0.37191449      1.46894309     -1.00826698
