13
b3lypvtz=-237091.33169779
N       3.23499448      0.13452722     -0.08612477
C       1.97175681     -0.45691457      0.03094120
C       0.81111273      0.18873359     -0.02318490
O      -0.36882342     -0.55040191     -0.03964869
C      -1.53876065      0.14522128      0.00732334
N      -2.58562450     -0.72802392      0.03282495
O      -1.63050842      1.34855248      0.04583754
H       3.22978572      1.14081337      0.00308521
H       3.92844099     -0.26788459      0.52730344
H       1.97835846     -1.53783178      0.09846161
H       0.68217793      1.25860478     -0.08359869
H      -2.42726005     -1.69081524     -0.20507024
H      -3.49721008     -0.33904672     -0.12538701
