12
b3lypvtz=-221404.34151152
C      -1.56231590     -0.48143098     -0.17089222
C      -0.60262201      0.69137076     -0.01138515
N       0.78916709      0.25379691      0.08708959
N       1.38987903     -0.05977742      1.22067684
N       2.58083937     -0.43920056      0.88175052
N       2.70132658     -0.35622552     -0.45452726
N       1.58519150      0.07357120     -0.95121756
H      -1.50188636     -1.15214018      0.68537696
H      -2.58330168     -0.10621440     -0.24231374
H      -1.33903390     -1.04555726     -1.07578549
H      -0.80807669      1.25641505      0.89513352
H      -0.64916707      1.36539239     -0.86390599
