12
b3lypvtz=-226191.71857939
C       1.88592482     -0.23488849      0.04411323
C       0.57586152      0.46461225      0.18136357
C      -0.64394031     -0.05712742     -0.05827285
C      -1.88089700      0.75537127      0.11975722
O      -1.86356938      1.90903393      0.48377096
N      -0.69173906     -1.41887242     -0.48855566
O      -1.80408964     -1.86271870     -0.69710958
H       2.03048072     -0.59643148     -0.97539540
H       2.71142290      0.42386535      0.30292933
H       1.92579230     -1.11772850      0.68445239
H       0.57767208      1.50038658      0.50607293
H      -2.82291894      0.23449764     -0.10312615
