18
b3lypvtz=-181899.31104051
C       2.22750160     -1.39835852      0.03002356
C       1.21231212     -0.64335808     -0.37059165
C       0.66492596      0.54056363      0.37807049
C       0.77253906      1.82605823     -0.45568654
C      -0.78573706      0.29048940      0.84876064
N      -1.70318435      0.11664327     -0.26423205
C      -2.46134482     -0.88958496     -0.26491373
H       2.58043404     -2.23552860     -0.55818885
H       2.74696340     -1.20494888      0.96207931
H       0.72248165     -0.87045495     -1.31339351
H       1.25827013      0.66612561      1.28899410
H       0.17708151      1.75027643     -1.36497330
H       1.80896754      2.01760036     -0.73515844
H       0.40778487      2.68554816      0.11077244
H      -1.11526901      1.17563733      1.40157317
H      -0.80869276     -0.56628268      1.53681126
H      -3.15915426     -1.03423541     -1.08725078
H      -2.46300063     -1.64557831      0.53096887
