15
b3lypvtz=-216885.70744911
O      -2.18004221     -0.19658907      0.85357730
C      -1.45408936     -0.67034375     -0.27485183
C      -0.12239715      0.00977226     -0.29744212
C       0.20592458      1.38446356      0.16793311
C       0.98990790      0.19873382      0.70311620
C       1.89807269     -0.33084631     -0.39303076
O       0.78236450     -0.40672536     -1.33458478
H      -3.03925519     -0.62572488      0.86603681
H      -1.97626759     -0.44291021     -1.21387740
H      -1.30233888     -1.75507962     -0.22921619
H      -0.49542015      1.80773507      0.87344575
H       0.66950843      2.08345539     -0.51923181
H       1.03673607     -0.04827889      1.75213870
H       2.69528385      0.32247275     -0.75575546
H       2.29191251     -1.32993477     -0.19835753
