15
b3lypvtz=-193560.62568665
C       2.10296781      0.00414242     -0.26624271
O       1.69742408     -0.78307484      0.88953777
C       0.71103132     -0.14528573      0.11577103
C      -0.41137040      0.77418756      0.61112697
C      -0.96928721      0.68412291     -0.84145311
C      -0.54817008     -0.77509435     -0.49119580
C      -1.20486117     -0.53870194      0.90651131
H       2.64153522      0.91549673     -0.02664312
H       2.51037456     -0.57543485     -1.08851048
H      -0.32782260      1.65783691      1.23920552
H      -0.40529490      1.19108409     -1.62416620
H      -2.04078994      0.85019021     -0.94171178
H      -0.62076643     -1.65876211     -1.12062660
H      -2.29063436     -0.44591709      0.91066345
H      -0.84423593     -1.15468993      1.72773375
