19
b3lypvtz=-171821.71234096
C       1.85263002      1.02542781      0.43140076
C       0.83662044      0.32852420     -0.46119420
C       0.86940165     -1.23059493     -0.60340070
C      -0.60311978     -1.28042553     -0.19562351
C      -0.76908275     -0.67994733      1.17067641
C      -0.63513248      0.23825011     -0.01120589
C      -1.68915806      1.23959680     -0.38445306
H       1.63841690      2.09383007      0.51189646
H       1.85772694      0.61049169      1.44084484
H       2.86279726      0.92173535      0.02816203
H       0.87173692      0.77452878     -1.45794415
H       1.05744997     -1.55417672     -1.62607873
H       1.55714023     -1.76022164      0.06084291
H      -1.35696038     -1.92341942     -0.62979302
H      -1.76686742     -0.73762993      1.58719490
H       0.01985786     -0.77905388      1.90886175
H      -1.65763862      1.46909118     -1.45288155
H      -2.68910332      0.86753452     -0.15244482
H      -1.55574337      2.17913087      0.15996357
