11
b3lypvtz=-259628.78140872
C      -1.15057214     -0.22816052     -0.42529740
N      -1.49739099     -0.45296349      0.76301079
O      -2.02602184     -0.01002081     -1.41261028
O       0.09602349     -0.19363252     -0.99162460
C       1.19852932      0.13127670     -0.24676895
N       1.30188109      0.84731227      0.78255743
O       2.24849591     -0.43886676     -0.84783590
H      -0.71901892     -0.64076581      1.38399481
H      -2.90523780     -0.11200393     -1.02399882
H       0.42148435      1.24164517      1.09257102
H       3.03182752     -0.14382029     -0.36433478
