15
b3lypvtz=-214528.10777568
C      -3.11298097     -0.24534197      0.00004566
C      -1.63357169     -0.41167462     -0.00023576
N      -0.85278627      0.59055073      0.00037429
C       0.53771433      0.34579836      0.00003481
O       1.18373516      1.54128491     -0.00031183
N       1.07130201     -0.80229767      0.00035249
C       2.51655342     -0.91416692      0.00017887
H      -3.54610257     -0.73775437     -0.87554757
H      -3.38765141      0.80703008      0.00072235
H      -3.54583080     -0.73880169      0.87518447
H      -1.23498705     -1.43043097     -0.00092700
H       2.13565294      1.38845107     -0.00047001
H       2.97333302     -0.45594037      0.88816927
H       2.79729520     -1.96578793      0.00038657
H       2.97311368     -0.45633663     -0.88813261
