13
b3lypvtz=-213777.90604303
C      -2.55456257      1.09852263      0.19250179
C      -1.67712956      0.13310597     -0.07409562
N      -0.35173794      0.19499351      0.34671434
C       0.41675510     -0.77083307      0.04713508
N       1.74957794     -0.81520748      0.41322662
C       2.43567005      0.14550424      1.13654094
O       3.60403816      0.03002101      1.41685432
H      -2.25952209      1.97462747      0.75322135
H      -3.57765125      1.02551787     -0.14589884
H      -1.98559043     -0.74804020     -0.64145429
H       0.09766656     -1.64902373     -0.52311039
H       2.29559984     -1.61772906      0.13685214
H       1.80688619      0.99834085      1.41531256
