12
b3lypvtz=-226223.2509681
C      -0.92806378      0.99755672     -0.14589667
C      -1.13740706     -0.49408239     -0.22805342
C       0.16441087     -1.11986551      0.01073776
O      -0.41556091     -1.07942305     -1.30874732
C       1.13370409     -0.00963172      0.22792242
N       2.33190304     -0.14277520      0.58721252
O       0.49775126      1.18234655     -0.01205922
H      -1.25648053      1.52172121     -1.04334133
H      -1.42492814      1.42224459      0.72939370
H      -2.08588910     -0.94654503      0.03182061
H       0.33489702     -2.09380940      0.44460650
H       2.78566327      0.76226323      0.70640446
