13
b3lypvtz=-211333.54021421
C      -3.07040538      0.71224225     -0.05761968
N      -2.32834077      0.24093027     -0.96798047
C      -0.96138631      0.10427577     -0.73910343
N      -0.24982253      1.05314319     -0.27248094
C       1.11179432      0.84208165     -0.06273037
N       1.58650306     -0.27006385      0.34287666
N       2.94738409     -0.37844689      0.49427978
H      -4.12417185      0.87758849     -0.26658729
H      -2.69798869      0.96148124      0.93874956
H      -0.54555059     -0.84963313     -1.06300188
H       1.73775645      1.72509646     -0.21314247
H       3.43279571      0.50227587      0.64806952
H       3.16123249     -1.04727131      1.21867101
