12
b3lypvtz=-223776.10050324
C      -3.05920596     -0.63610030     -0.00010946
N      -2.21660922      0.31292118     -0.00001736
N      -0.88559072     -0.14507410     -0.00003135
C      -0.08676802      0.83809739      0.00006051
O       1.25859983      0.75586890      0.00006041
N       1.77241534     -0.57139426      0.00005940
C       3.03584512     -0.52664012      0.00000457
H      -4.11126278     -0.37619098      0.00000401
H      -2.75993330     -1.68309591     -0.00001629
H      -0.39625734      1.88003265      0.00003866
H       3.54390679     -1.48210786      0.00002150
H       3.60388926      0.39998539     -0.00001960
