15
b3lypvtz=-212109.9681217413
C       2.14217188     -0.85187647      0.13283462
N       2.50875517      0.14663950      0.89321307
C       0.82811436     -0.94664942     -0.35341195
N       0.08928845      0.21651208     -0.07279941
C      -1.19287898      0.41263337     -0.14764881
N      -1.80019844      1.57765468      0.29210553
N      -2.00837105     -0.56631855     -0.65572386
H       2.82582191     -1.64990636     -0.16827031
H       3.49035186      0.09637906      1.13660497
H       0.54355902     -1.55016093     -1.19919155
H       0.70968377      0.90521989      0.37853432
H      -1.15368834      2.28052096      0.61827629
H      -2.46550214      1.97151246     -0.35995281
H      -2.94209610     -0.55823517     -0.27018626
H      -1.57501135     -1.48392507     -0.62060074
