18
b3lypvtz=-205207.05216225
C       2.74090036     -0.11559705      0.11151081
C       1.41008884     -0.75593075     -0.14434680
C       0.19233465     -0.20983324     -0.04574800
C      -0.10485101      1.18923024      0.43383307
O      -0.95009483      1.89414203     -0.47191229
N      -0.96701256     -0.88736193     -0.49845508
C      -2.06373738     -1.09458842      0.45150891
H       3.26160824     -0.60692092      0.93891474
H       3.39070912     -0.20883707     -0.76342579
H       2.66633768      0.94263157      0.35419484
H       1.45695749     -1.79176943     -0.47367025
H       0.81516618      1.75742432      0.55229243
H      -0.58485055      1.14842911      1.42097118
H      -1.34021707      1.22859495     -1.05244444
H      -0.72077661     -1.74823203     -0.96644395
H      -1.76590923     -1.66471067      1.34042362
H      -2.46327430     -0.13499790      0.77685136
H      -2.86671503     -1.63101982     -0.05288838
