17
b3lypvtz=-240995.8339788
C      -1.82329037     -0.92143139      0.69168958
C      -1.24080544     -0.57170267     -0.67924971
C      -0.18018366      0.54184771     -0.71721222
O      -0.65490746      1.75656340     -0.14885257
C       1.18701045      0.19933970     -0.10471608
O       1.01835082      0.12995770      1.30327386
O       1.76705819     -0.97014161     -0.62335827
H      -2.61534637     -1.66419931      0.58538172
H      -2.26439582     -0.04034616      1.15953260
H      -1.07173001     -1.31758897      1.37247529
H      -0.83112977     -1.46621407     -1.16049373
H      -2.05112467     -0.23851358     -1.33150695
H       0.01698145      0.76407730     -1.76801825
H      -0.53886979      1.68473070      0.80586118
H       1.88842946      0.99800723     -0.35791252
H       1.88928789      0.10295022      1.71237618
H       1.17791808     -1.71048820     -0.43765209
