11
b3lypvtz=-213012.94148485
N       2.31447626      0.10605203      0.00013418
C       1.04325907      0.03692842      0.00010975
C       0.21030779      1.23504042     -0.00037870
C      -1.11665622      1.12004144     -0.00033567
O      -1.74403890     -0.10026206     -0.00014094
C      -0.92560121     -1.18743697     -0.00006507
N       0.33913168     -1.19730018     -0.00013906
H       2.70488716     -0.83605916      0.00035260
H       0.68190129      2.20585307     -0.00067403
H      -1.82648773      1.93232389     -0.00049860
H      -1.50984318     -2.09997390      0.00005055
