14
b3lypvtz=-201274.6868479
N       2.72295321      0.55723102     -0.48539197
C       1.66988166      0.89797860      0.14302133
N       0.53623280      0.16490205      0.37255870
C       0.07548773     -1.00538099     -0.39688506
C      -1.34691703     -0.57663525     -0.06659446
N      -2.44970439     -1.12082683     -0.30662177
C      -0.82121610      0.68526766      0.62653267
H       2.65100569     -0.38837771     -0.86351459
H       1.63115738      1.88711797      0.60210586
H       0.31959298     -0.95902410     -1.46423200
H       0.38539523     -1.97307821      0.00214648
H      -3.23155939     -0.57314349      0.05496809
H      -1.08207451      0.78896098      1.68241473
H      -1.06033526      1.61480830      0.09929198
