14
b3lypvtz=-203652.7531507
C      -0.56124400      2.75875173     -0.70746394
C      -0.26274236      1.62259522     -0.46726123
C       0.07321392      0.23626102     -0.15092098
C      -1.17671778     -0.51989193      0.34903623
O      -0.87141333     -1.85046533      0.71733974
N       0.57359217     -0.45045492     -1.34692574
C       1.76710676     -0.85696575     -1.32763212
H      -0.81800364      3.76541669     -0.92476064
H       0.82096142      0.22171452      0.65503463
H      -1.94463201     -0.47691348     -0.42842984
H      -1.55618748     -0.02391060      1.24118155
H      -0.65154026     -2.33692511     -0.08417555
H       2.44703383     -0.70373005     -0.48182165
H       2.16047274     -1.38548201     -2.19320048
