11
b3lypvtz=-236292.21094553
O      -3.68335763      0.19745912     -0.24268479
C      -2.60435801     -0.07260264      0.23054015
C      -1.32830746      0.25406428     -0.43192133
N      -0.24692281     -0.08064240      0.16153825
N       0.90372158      0.26441073     -0.53117933
C       1.93905475     -0.09871476      0.11675112
O       3.14805957      0.14857125     -0.39335649
H      -2.49640756     -0.58846588      1.20257814
H      -1.34457987      0.76365995     -1.39365593
H       1.88328230     -0.60775493      1.07911141
H       3.82971513     -0.17988472      0.20207880
