19
b3lypvtz=-192731.75881415
C      -2.38599617     -0.22655020      0.04560854
C      -1.12752646     -0.15151980     -0.82114095
C       0.16963835     -0.10756657     -0.02784522
C       0.62036835      1.21805820      0.54449988
C       1.35607743      0.59854278     -0.63260658
N       2.66240399      0.00657181     -0.52202221
N       0.49844189     -1.26364757      0.78140751
H      -3.28575769     -0.25016470     -0.57079857
H      -2.45832449      0.63731947      0.70959286
H      -2.39287453     -1.12503568      0.66571165
H      -1.09456662     -1.01334703     -1.49731690
H      -1.18105926      0.73296759     -1.46118588
H       1.12602732      1.19094328      1.50054556
H      -0.00382613      2.08685328      0.37855230
H       1.17802546      1.06240476     -1.59618815
H       2.65797999     -0.64801765      0.25300506
H       3.36393019      0.71162074     -0.32876626
H      -0.11447362     -1.34080326      1.58346548
H       0.41151198     -2.11862945      0.24292528
