15
b3lypvtz=-214507.01499226
C       0.97363133      1.83536452     -0.14549239
N       0.14423757      1.13929578      0.51432823
C      -0.08073857     -0.21576699      0.23001724
C       0.87030771     -1.12095871     -0.03623506
O       2.19787527     -0.80820010     -0.17353998
C      -1.51416079     -0.63956343      0.39831743
N      -2.37275359      0.01848634     -0.59904343
H       1.53505507      1.46566843     -1.00382476
H       1.13243204      2.86988642      0.15078822
H       0.61469809     -2.17008565     -0.12217526
H       2.72330681     -1.60595519     -0.07092389
H      -1.80934565     -0.41631004      1.43360681
H      -1.59430248     -1.71837470      0.25674547
H      -2.31777239      1.02315437     -0.46781130
H      -3.34110543     -0.23532604     -0.43755332
