17
b3lypvtz=-194381.75823506
C      -1.32620367      0.92210160      0.13607902
C      -1.57690988     -0.34040051     -0.21114502
O      -0.69288190     -1.37229284     -0.33350842
C       0.46758379     -1.31777682      0.50784840
C       1.59252377     -0.44693940     -0.03671999
C       1.14187935      0.94940300     -0.49650463
C       0.02142261      1.57232138      0.34740456
H      -2.19644627      1.56236113      0.21388177
H      -2.58323278     -0.66761955     -0.44388380
H       0.80128783     -2.35119241      0.60448042
H       0.15318822     -0.97059372      1.49598222
H       2.08448415     -0.95811658     -0.86721527
H       2.33883126     -0.35961931      0.75968393
H       0.79055994      0.89082652     -1.52863847
H       2.00789250      1.61543641     -0.50341546
H      -0.07322821      2.62568932      0.07292990
H       0.30053329      1.57687079      1.40801284
