16
b3lypvtz=-204458.51373131
C       1.82054314     -0.66400666      0.14166724
C       0.64901082      0.01442556     -0.56587964
N      -0.19884616     -1.00420285     -1.21426911
C      -1.31753343     -1.04511827     -0.61982469
C      -1.50776123     -0.08368495      0.52570387
C      -0.28134431      0.82456332      0.38013787
O      -0.73455212      2.04274889     -0.21261988
H       2.50441696      0.07635426      0.56079317
H       1.46892645     -1.30328731      0.95428272
H       2.37349151     -1.28922686     -0.55856963
H       1.03827998      0.67417468     -1.34708606
H      -2.08244732     -1.75389223     -0.92708995
H      -2.42992743      0.49455095      0.45355703
H      -1.53075033     -0.61720856      1.47992366
H       0.19959586      1.03296625      1.34063647
H       0.02879762      2.60084378     -0.39126308
