11
b3lypvtz=-215360.05497297
C       2.67887778      0.00847076      0.11502024
C       1.53586768     -0.25276616     -0.13696712
C       0.15157895     -0.57266193     -0.40740570
O      -0.56499074      0.42553113     -1.18999983
C      -1.54924382      0.68578364     -0.16243413
C      -0.87298222     -0.33675396      0.74180127
O      -1.04327877     -0.77953590      1.82957851
H       3.69139061      0.24247788      0.33262454
H       0.05694282     -1.56780021     -0.85456559
H      -2.56697999      0.43149004     -0.46995325
H      -1.51728230      1.71586471      0.20230106
