19
b3lypvtz=-218452.46866703
C      -2.61431988      0.69877717     -0.66503725
C      -1.63754316     -0.23272880      0.05040922
C      -0.18243860      0.21102105     -0.07007287
O       0.13729862      0.26168795     -1.45805548
C       0.76958665     -0.71779846      0.69199416
C       2.19508923     -0.19996369      0.79723634
O       2.75231803     -0.09633086     -0.52312804
H      -3.64044727      0.34131096     -0.56563238
H      -2.57192836      1.70797408     -0.24827206
H      -2.37596950      0.76564939     -1.72544954
H      -1.72018769     -1.24296456     -0.36092341
H      -1.89428841     -0.29697193      1.11177397
H      -0.09415989      1.22143936      0.36370216
H       1.10001518      0.30036933     -1.53044440
H       0.39579705     -0.86085566      1.70992360
H       0.77361895     -1.69699570      0.20535380
H       2.19938013      0.78183533      1.28497371
H       2.79910803     -0.88237206      1.40422133
H       3.60907089      0.33601710     -0.47267288
