16
b3lypvtz=-204471.99810042
C      -0.60681530      1.45190420     -0.45691737
C      -0.18039749      0.06605420      0.01473832
C      -1.37840097     -0.83592596      0.29045166
C       0.96455811     -0.59425461     -0.82140039
C       1.82962249     -0.47122012      0.44804425
O       2.95828419     -0.75165420      0.75655437
N       0.79357856      0.10297132      1.13238751
H      -1.22557560      1.94519988      0.29616549
H      -1.19363117      1.38314016     -1.37464935
H       0.26135613      2.08264812     -0.64917677
H      -2.01927954     -0.40594015      1.06351642
H      -1.98274194     -0.95929555     -0.61006385
H      -1.05506945     -1.82131420      0.62684116
H       0.78102134     -1.61986177     -1.13604475
H       1.32629720     -0.00780772     -1.66386952
H       0.72709346      0.43525639      2.08342282
