12
b3lypvtz=-200514.55556221
C       2.36938719     -0.97437770      0.00000213
N       1.19118732     -0.49738214     -0.00000018
N       1.04523652      0.84389704      0.00000059
C      -0.18078020      1.44455015      0.00000146
C      -1.41384011      0.89939441      0.00000044
C      -1.76147150     -0.47240553     -0.00000089
N      -2.14529574     -1.56178095     -0.00000095
H       3.26952831     -0.35404515      0.00000457
H       2.47547849     -2.04973596      0.00000081
H       1.87049761      1.43269080      0.00000476
H      -0.10341978      2.52339405      0.00000264
H      -2.24693910      1.58811099      0.00000063
