15
b3lypvtz=-193597.12084699
C       3.18337330      0.83276419      0.08656700
C       2.41908099     -0.09090511     -0.50040760
C       1.07908476     -0.38938516     -0.13410954
C      -0.05362422     -0.68660470      0.15528991
C      -1.44146595     -0.98622532      0.48638161
C      -2.36914548      0.21618545      0.24147105
O      -2.39256434      0.62046098     -1.11477179
H       4.19718023      1.00580130     -0.24669344
H       2.81764816      1.43321929      0.90856971
H       2.82710416     -0.67145408     -1.32230387
H      -1.78981837     -1.82908948     -0.11628873
H      -1.51758065     -1.28588609      1.53658918
H      -2.07439025      1.04252168      0.89823365
H      -3.39199299     -0.06602042      0.49177266
H      -1.49288935      0.85461747     -1.37019981
