14
b3lypvtz=-203704.63923591
C      -0.17685201      1.65410955      0.09883552
C      -0.41016924      0.17261913     -0.22677989
C      -1.78260709     -0.23780720      0.26918161
O      -2.69542596     -0.57223423     -0.43666617
C       0.64691492     -0.74626441      0.43294763
C       2.00617343     -0.43741660      0.00391431
N       3.07154821     -0.18021537     -0.34559255
H      -0.91098958      2.27867200     -0.40944552
H      -0.25597870      1.84077421      1.17240682
H       0.81636493      1.96472981     -0.22437517
H      -0.39596030      0.01907072     -1.30590385
H      -1.90697399     -0.19211687      1.37451709
H       0.44215086     -1.79171535      0.19159824
H       0.60158452     -0.65277339      1.52177191
