17
b3lypvtz=-215306.2407394
C       1.49000053      1.40707683     -0.39027939
C       1.43019894      0.14028249      0.45692134
N       2.01160986     -0.98307720     -0.29932234
C      -0.00232043     -0.24012951      0.85132068
N      -0.79456202     -0.59465424     -0.31084598
C      -2.07484166     -0.20137419     -0.50184854
O      -2.73482505      0.46325655      0.27246173
H       1.04884035      2.24937272      0.14305770
H       2.52476728      1.66522296     -0.62532241
H       0.95183783      1.27514723     -1.32901452
H       1.97006443      0.33121311      1.39451035
H       2.19246751     -1.77206172      0.31149192
H       2.90025049     -0.71851302     -0.70709220
H       0.03016732     -1.07915337      1.55608085
H      -0.50061349      0.58525808      1.35667778
H      -0.32685050     -1.13095405     -1.02501539
H      -2.47623739     -0.55868968     -1.46738659
