17
b3lypvtz=-215266.0836785
N      -3.01782064      0.26902831     -0.25455543
C      -1.94624209     -0.52411424      0.35147398
C      -0.64612291     -0.23506289     -0.34587263
O       0.01377807      0.98815219      0.03534387
C       0.64615534     -0.26674197      0.34199454
C       1.94929249     -0.53641135     -0.37195996
N       3.08241403      0.26852172      0.08510953
H      -3.91127570      0.04243942      0.16453066
H      -2.85243697      1.25440629     -0.08318611
H      -1.81166575     -0.35292688      1.42797918
H      -2.18649103     -1.58242452      0.21498271
H      -0.66160780     -0.40004863     -1.42033809
H       0.64539532     -0.49838712      1.40676511
H       1.81123292     -0.35426997     -1.43962002
H       2.20754293     -1.59308278     -0.25861541
H       3.28604833      0.07915702      1.06007966
H       2.84654847      1.25282941      0.02210442
