17
b3lypvtz=-191991.29167362
C       0.13098591      1.92479097     -0.20989319
C      -0.13661245      0.61842002     -0.25228649
C      -1.54033353      0.09849542     -0.44354891
C      -2.09284906     -0.63974789      0.78359474
C       0.96526705     -0.39181659     -0.12827370
N       0.99871135     -1.53265688     -0.70625897
N       2.04633495      0.00135137      0.63707354
H       1.13954073      2.29696808     -0.09514453
H      -0.65505814      2.66060728     -0.32344669
H      -2.19060620      0.93852491     -0.69197239
H      -1.57061708     -0.57345367     -1.30647024
H      -3.10529556     -0.99843714      0.59281338
H      -1.47449990     -1.50063182      1.03857270
H      -2.12804679      0.02174053      1.65068339
H       0.19185321     -1.66644037     -1.30672002
H       1.85719789      0.59384534      1.42776833
H       2.71585762     -0.73401058      0.80334305
