16
b3lypvtz=-204416.33636601
C      -2.30821762     -1.48078568     -0.19913245
C      -1.61294431     -0.55236273      0.10975140
C      -0.80161020      0.62013734      0.47758622
N      -0.80398869      1.69567516     -0.52111753
C       0.64510454      0.23497213      0.78838863
O       1.25334187     -0.23600628     -0.39571219
C       2.61041149     -0.58355201     -0.22278462
H      -2.91316503     -2.30725795     -0.47697914
H      -1.21414297      1.03059222      1.40482682
H      -0.34062602      1.36000499     -1.35835266
H      -1.75613767      1.92381972     -0.78090802
H       1.16694437      1.12678846      1.15764289
H       0.66702234     -0.53656712      1.56825266
H       2.98176878     -0.93000599     -1.18547247
H       2.72752302     -1.38766567      0.51429658
H       3.20829510      0.27706341      0.10233688
