17
b3lypvtz=-191969.05014625
C       2.35793968      0.56710964     -0.08338574
N       1.58315139     -0.54760331     -0.60433299
C       0.35562995     -0.66336632     -0.34356430
C      -0.65280883     -1.73318745     -0.74399388
C      -1.71302678     -0.84201885     -0.04806458
N      -0.61608784      0.03346636      0.38522217
C      -0.75289738      1.42271041      0.75534647
H       2.28733595      0.65594924      1.00729339
H       3.40762094      0.41243840     -0.33172071
H       2.05953881      1.52784680     -0.51818514
H      -0.77377777     -1.85486523     -1.81802972
H      -0.48266933     -2.70407423     -0.28295858
H      -2.41106878     -0.35632986     -0.73772547
H      -2.27307752     -1.29407738      0.77280270
H      -1.43398837      1.51164699      1.60444161
H       0.20925247      1.83082399      1.05227503
H      -1.15116660      2.03363080     -0.06552026
