16
b3lypvtz=-202049.80243859
N       1.63155919      1.29506142      0.18061825
C       1.15384424      0.12990970     -0.04635739
N       1.83660067     -1.08926860      0.01093132
N      -0.18218008     -0.01918334     -0.35312348
C      -1.07907010     -1.07353861      0.16591394
C      -2.23950987     -0.04985492      0.12382403
C      -1.17316796      1.04529674     -0.13082884
H       2.63998330      1.26855809      0.30086652
H       1.51812101     -1.78863157     -0.64341594
H       2.83994419     -0.99838748      0.01019045
H      -0.81390651     -1.40485491      1.17377933
H      -1.17644487     -1.94845830     -0.47973671
H      -2.81824417      0.04959565      1.03822625
H      -2.91542376     -0.20165268     -0.71468224
H      -1.32599186      1.69852605     -0.98949464
H      -0.93382841      1.65881075      0.73971113
