17
b3lypvtz=-194394.01980156
C       3.17897033      0.17237628     -0.45998934
C       1.90667573      0.15595085      0.32918053
C       0.83414209     -0.57355500      0.03833920
C      -0.44636442     -0.58638856      0.83009566
C      -1.60571332     -0.08066391     -0.03152080
C      -1.84656647      1.41191101     -0.03993970
O      -2.27404038     -0.84521226     -0.68769729
H       3.12348443     -0.48948550     -1.32448593
H       4.02758551     -0.14023015      0.15477381
H       3.40770888      1.18041953     -0.81713600
H       1.88235619      0.79157086      1.21143993
H       0.84560033     -1.21510530     -0.83842804
H      -0.33828546      0.03004429      1.72469967
H      -0.69514524     -1.60674792      1.12857629
H      -0.91272929      1.95073497     -0.21076764
H      -2.22169934      1.72492307      0.93833822
H      -2.57577157      1.66950473     -0.80396559
