13
b3lypvtz=-211344.423148671
C       0.60502096      0.28397560     -0.15427309
C      -0.74084051      0.39553007     -0.13313204
N      -1.61032726     -0.53578096      0.43508672
N      -1.43557198      1.46727069     -0.70578109
C       1.32808217     -0.93588959      0.15865081
N       2.58390307     -0.92067209      0.48178178
N       3.69438807     -0.88958386      0.73800056
H       1.18741758      1.14739248     -0.44914911
H      -1.16286077     -1.32498756      0.87114342
H      -2.37897274     -0.80687930     -0.16210096
H      -2.13080235      1.86413451     -0.08638070
H      -0.83340019      2.17916302     -1.09057345
H       0.89396395     -1.92367300      0.09672715
