16
b3lypvtz=-204430.55974675
N       3.14590590      0.07735258      0.23613705
C       1.98407776      0.37486261     -0.16883788
C       0.82363161     -0.54988544     -0.42564168
C      -0.40616235     -0.19887078      0.40999995
C      -1.21051833      1.06727298      0.04130348
O      -2.42524976      0.30164546     -0.12203418
C      -1.71961006     -0.94174099      0.09077489
H       3.23452609     -0.93235173      0.37772191
H       1.78687917      1.43523108     -0.35248233
H       0.55619194     -0.49054495     -1.48719479
H       1.13026200     -1.58090528     -0.22629067
H      -0.15616654     -0.23539440      1.47018821
H      -1.30959012      1.82751601      0.81856195
H      -0.90945753      1.54876369     -0.89500458
H      -1.69066169     -1.55137417     -0.81824728
H      -2.15898409     -1.52674466      0.90148995
