17
b3lypvtz=-215272.22760493
C      -3.27491572     -0.62612315      0.16677177
C      -1.89863410     -0.34530999     -0.43349422
C      -1.12905510      0.71663573      0.34535021
N       0.18507808      0.98649248     -0.23909878
N       1.08420429     -0.05446838     -0.01335616
C       2.32092815      0.19266231     -0.04109134
O       3.25191517     -0.78074825      0.10940110
H      -3.89702305      0.27221001      0.17890365
H      -3.19475922     -0.98500244      1.19543367
H      -3.80681049     -1.38649426     -0.40642215
H      -1.99611347     -0.01317840     -1.46991366
H      -1.30474801     -1.26079805     -0.45348553
H      -1.04885636      0.41634402      1.39946402
H      -1.67643687      1.66243069      0.31719787
H       0.54993012      1.87649759      0.08860967
H       2.77672156      1.17032737     -0.19226849
H       2.77534501     -1.61587827      0.21895437
