17
b3lypvtz=-217685.00940101
C      -1.57817449      1.14563113     -0.33794239
C      -0.67182891     -0.03607054     -0.01598023
O      -0.51281706     -0.18831858      1.38820312
O      -1.31824566     -1.18073598     -0.55594678
C       0.71372227      0.11997633     -0.61374352
C       1.88535142     -0.66305515     -0.07915188
C       1.82076633      0.83027799      0.10890296
H      -1.67670522      1.27118011     -1.41571861
H      -1.16757005      2.05674613      0.09335586
H      -2.57348470      0.97207988      0.07487344
H      -1.38610605     -0.36244167      1.75528949
H      -0.70725873     -1.92188671     -0.46838578
H       0.67605540      0.24984239     -1.68764578
H       1.72285212     -1.27042737      0.79947603
H       2.59268487     -1.06474553     -0.79133603
H       1.61197433      1.18683198      1.10677313
H       2.48668315      1.45351161     -0.47179902
