15
b3lypvtz=-191172.98996477
C      -1.67694639      1.83864065      0.81210739
C      -1.04867154      0.85597250      0.52352244
C      -0.26643200     -0.31454698      0.20946609
C       1.23250924     -0.17281031      0.41068498
N       1.79503543      0.79534333     -0.53180822
C      -0.78883969     -1.24460177     -0.82934917
N      -0.81326032     -1.64001550      0.58384444
H      -2.24041897      2.70319598      1.06014795
H       1.67868294     -1.14889278      0.21949824
H       1.41453895      0.06625178      1.46746781
H       1.45370346      1.72696674     -0.32264602
H       2.80271722      0.82763253     -0.43744691
H      -1.72034047     -0.98747245     -1.31649006
H      -0.07435117     -1.77651739     -1.44451503
H      -1.74782669     -1.52904633      0.96341607
