14
b3lypvtz=-201296.87546994
C      -3.16239830     -0.50612135      0.27535466
N      -2.02076153      0.04446195     -0.42743362
C      -0.82159059      0.27784176      0.16201968
N       0.24091643      0.51048662     -0.50108179
C       1.43457475      0.81229377      0.26006600
C       2.47582776     -0.20655706      0.05898079
N       3.29011578     -1.00588624     -0.08532722
H      -4.08666751     -0.12296080     -0.15660798
H      -3.19314724     -1.60001532      0.24708994
H      -3.12968106     -0.19394466      1.31871200
H      -1.99326955     -0.04378666     -1.43166830
H      -0.86069283      0.27730605      1.25858378
H       1.84991523      1.76993156     -0.06794503
H       1.25845065      0.89514038      1.34314410
