13
b3lypvtz=-211327.06579737
C      -2.81368938     -0.00263516     -0.75772949
C      -1.36106426      0.29511417     -0.70575344
N      -0.58675061     -0.30303769      0.11656813
N       0.73054769      0.15973777     -0.04226653
N       1.49843282     -0.40566125      0.75231292
C       2.83694094      0.05706814      0.59862257
N       3.78302919     -0.38174578      1.30922381
H      -3.09028162     -0.34112906     -1.76015996
H      -3.08406241     -0.76232252     -0.02845186
H      -3.38935172      0.90796222     -0.56997504
H      -0.95327661      1.04344988     -1.38945289
H       3.00557870      0.81322385     -0.16786274
H       3.42394728     -1.08002455      1.96518703
