18
b3lypvtz=-205188.90251747982
C      -1.34915509     -0.98960722      0.74028690
C      -0.57121770     -0.36529238     -0.43095531
C      -1.28042338      0.89553571     -0.95463172
C       0.86325382     -0.09230099     -0.06768370
N       1.80803017     -0.71344179     -0.71802150
O       3.06480396     -0.60775646     -0.54680649
C       1.29251696      0.85218176      1.00159858
H      -2.37297574     -1.21761122      0.43892486
H      -1.39957142     -0.30656711      1.58997878
H      -0.87984939     -1.91363788      1.07938433
H      -0.55979265     -1.09828736     -1.24625642
H      -0.75944141      1.31368048     -1.81648787
H      -2.30267021      0.65981171     -1.25531901
H      -1.33285704      1.66831196     -0.18580840
H       1.49995815     -1.36222268     -1.45255885
H       1.89212323      0.32908660      1.75104367
H       0.44163003      1.32432968      1.48740772
H       1.94563775      1.62378718      0.58590445
