13
b3lypvtz=-190438.80719357
C      -1.93613698      0.46144269     -0.73157161
C      -1.30820134     -0.53755189     -0.12378985
C       0.10088492     -0.53184485      0.34368626
N       1.16372915     -1.15249391     -0.46518084
C       1.13538331      0.31756038     -0.31133979
C       2.20601166      0.91322578      0.44890657
N       3.04192591      1.41805804      1.05780704
H      -1.45594715      1.41208795     -0.92637253
H      -2.96642096      0.36482331     -1.04675907
H      -1.84537609     -1.46038217      0.07602333
H       0.23480101     -0.73087437      1.40182060
H       0.80516965     -1.38429806     -1.38788667
H       0.82417691      0.91044711     -1.16194343
