18
b3lypvtz=-181914.46518723
C       2.66534457     -0.52788642      0.05242241
C       1.34689203     -0.76049487     -0.00939262
C       0.28585038      0.23181232     -0.03315348
C       0.69363658      1.68505915     -0.05810795
C      -1.02814220     -0.11546439     -0.00321254
C      -1.57082574     -1.51760144     -0.03106879
N      -2.04863399      0.83508855      0.00802693
H       3.36815669     -1.34915145      0.07260797
H       3.08690413      0.46708743      0.09194555
H       1.04207846     -1.79935068     -0.02459172
H      -0.09182474      2.33092978     -0.44969838
H       1.56084994      1.82727335     -0.70406490
H       0.97357838      2.05489752      0.93397656
H      -2.35119787     -1.59293207     -0.79321366
H      -0.81971009     -2.26655556     -0.25272055
H      -2.03030802     -1.77271418      0.92917914
H      -1.82906532      1.73682537      0.39559506
H      -2.94850519      0.49817859      0.30772797
