18
b3lypvtz=-181889.2968741
C       3.36935978     -0.18229574     -0.19483859
C       1.99133001     -0.22901083      0.38870950
C       0.88496754      0.18505356     -0.22273332
C      -0.46411010      0.14505301      0.37247586
C      -1.47647600      1.22548800      0.15269549
N      -1.60362268     -0.04948171     -0.52880302
C      -2.65703586     -0.93743259     -0.06265441
H       3.36235599      0.22988604     -1.20437180
H       4.03793445      0.43026102      0.41707997
H       3.81467693     -1.18034493     -0.23843516
H       1.91005394     -0.63534801      1.39436441
H       0.93928946      0.58595396     -1.23096892
H      -0.52789287     -0.35059201      1.33882907
H      -1.23392598      2.07728701     -0.47169764
H      -2.15314399      1.43824034      0.97592401
H      -2.82995010     -0.87491014      1.02236482
H      -2.39766449     -1.96735402     -0.31137536
H      -3.58925503     -0.68759494     -0.57210190
