18
b3lypvtz=-181903.22764089
C       1.55570450     -1.84948992      0.16014941
C       1.78457336     -0.58765300     -0.18182103
C       0.75561672      0.50462164     -0.35953325
C       1.25090792      1.82257398      0.26812351
C      -0.58908708      0.13983174      0.20700045
N      -1.62812532      0.05933789     -0.50379151
C      -2.88468615     -0.26684598      0.14143241
H       0.55873935     -2.22640454      0.35071357
H       2.36730775     -2.55948005      0.24998510
H       2.80876209     -0.27635746     -0.37047830
H       0.61288288      0.66930663     -1.43176562
H       0.54861920      2.63332431      0.07283265
H       2.21927851      2.10423676     -0.14826931
H       1.36846602      1.72304244      1.34917186
H      -0.61682690     -0.03379365      1.29452632
H      -2.79899598     -0.41857460      1.22598153
H      -3.29544288     -1.17148159     -0.31150836
H      -3.60225099      0.53414240     -0.04771742
