17
b3lypvtz=-191988.26090954
C      -2.24094970     -0.82378639     -0.46234397
C      -1.47684898      0.20631768      0.31379254
C      -0.15004926      0.39910621      0.34377169
C       0.46610771      1.48408908      1.18023274
N       0.73357435     -0.39631550     -0.39938875
C       2.10608266     -0.31193285     -0.46169486
N       2.90260149     -1.03877352     -1.13948920
H      -2.82286321     -1.46680911      0.20403329
H      -1.61356599     -1.48121120     -1.06599902
H      -2.95402884     -0.35305779     -1.14505932
H      -2.07282114      0.87352945      0.92280350
H       1.15632086      1.07907906      1.92437990
H       1.02595426      2.19725168      0.57021214
H      -0.31500851      2.02845033      1.70494937
H       0.31844313     -1.12316692     -0.96061209
H       2.52969579      0.47758337      0.15059348
H       2.40735539     -1.75035358     -1.68018141
