12
b3lypvtz=-226221.95865627
O      -2.43865416      0.49888535      0.23978070
C      -1.50604702     -0.21556632     -0.54168664
C      -0.08297797      0.01512978     -0.13069452
N       0.17723598      0.86753976      0.82337904
O       1.56393445      0.87871829      0.97060638
C       2.08669124      0.01822589      0.08411215
C       1.11119198     -0.56553713     -0.64810876
H      -1.94970221      1.09711574      0.81816786
H      -1.72652457     -1.28638456     -0.47123406
H      -1.61078629      0.05997177     -1.59889305
H       3.15967477     -0.07342213      0.09195656
H       1.21586380     -1.29457644     -1.43148566
