16
b3lypvtz=-181110.36047235
N       1.63374009      1.17625235     -0.22590535
C       0.67327616      0.19499449      0.16471430
C       1.10100644     -1.23780815      0.31954762
C       0.06989813     -0.90605480     -0.72708825
C      -1.27828876     -0.67965051     -0.09526791
C      -1.72078622      0.74693563     -0.24800900
C      -0.68593044      0.41951710      0.79645908
H       2.19388048      1.47971289      0.56227245
H       1.18545430      1.99478046     -0.62031732
H       0.81797989     -1.80675891      1.19764294
H       2.09200627     -1.44813215     -0.06081453
H       0.26087278     -1.06074700     -1.78036958
H      -1.96155731     -1.45612863      0.22114606
H      -1.44652776      1.30682411     -1.13541134
H      -2.70869055      0.97596619      0.13195877
H      -0.87656452      0.57824793      1.85058205
