16
b3lypvtz=-227748.45979505
C      -2.12849872     -0.19415848      0.80253167
C      -1.51902563     -0.44407398     -0.57174228
N      -0.16780778     -1.00549922     -0.48591863
C       0.92775464     -0.28396484     -0.01322580
O       2.00339353     -1.09490202      0.28684813
C       1.08144554      1.03040212      0.17067971
O       0.20724298      1.96940596     -0.35791260
H      -3.14939647      0.17726913      0.69804301
H      -2.15305061     -1.11360958      1.38923866
H      -1.55630611      0.54937279      1.35633503
H      -1.54298353      0.47708191     -1.15723068
H      -2.11812326     -1.18710802     -1.10077102
H       0.07659559     -1.58102109     -1.28065850
H       1.64366718     -1.90384762      0.67277907
H       1.96238359      1.39481400      0.68159633
H       0.10188005      2.68472092      0.27582890
