12
b3lypvtz=-223803.21969313
C       1.62190292      1.56033308     -0.02690988
N       1.19355272      0.65611755      0.75379490
N       0.11923368     -0.12112006      0.36851859
C      -0.24474043     -1.07049787      1.31575655
O      -1.15096390     -1.86038040      1.20242844
N      -0.44726376      0.11603824     -0.85370966
C      -1.44220065     -0.55828410     -1.27842222
H       1.19340025      1.77162655     -1.00022819
H       2.46563286      2.13518074      0.33199713
H       0.41777560     -0.99553743      2.18807750
H      -1.92729643     -1.35941364     -0.73902275
H      -1.79923286     -0.27406266     -2.26228042
