16
b3lypvtz=-181136.77151152
C      -2.77313897     -0.66560534     -0.04990166
C      -1.44391655     -0.72343994     -0.09338255
C      -0.52342091      0.40981909      0.10866231
C      -0.80530666      1.65105535     -0.29259779
C       0.80110629      0.08879146      0.77910144
C       1.77800656     -0.60274644     -0.14654460
N       2.96930433     -0.26344060     -0.40271055
H      -3.37779574     -1.54706502     -0.21465622
H      -3.29738898      0.25758344      0.16237437
H      -0.97830651     -1.69159506     -0.25581264
H      -1.71852215      1.88110478     -0.82428143
H      -0.12253975      2.47106681     -0.11239162
H       1.25908504      1.00201759      1.16213312
H       0.62002809     -0.57233075      1.63452531
H       1.40484870     -1.49994139     -0.64616548
H       3.22590521      0.58585003      0.10694199
