13
b3lypvtz=-262792.56949871
O       1.16303483     -2.13368614      0.51503425
C       1.26570336     -0.93818435      0.48722030
O       2.44049703     -0.30983533      0.34086534
C       0.05424653     -0.01336437      0.59707980
O       0.50015300      1.33741836      0.61062088
C      -0.90053654     -0.25700343     -0.56555484
O      -1.93042848      0.72224031     -0.42777648
H       2.26042061      0.64698853      0.34498456
H      -0.45970301     -0.25358818      1.53339451
H      -0.25269509      1.88831784      0.36029860
H      -1.28993698     -1.27499295     -0.50813218
H      -0.36720354     -0.13006869     -1.51360269
H      -2.48355169      0.71575841     -1.21353204
