14
b3lypvtz=-226988.8872187
N       2.28439872     -0.55878560      0.78650699
C       1.42911019     -0.11137944     -0.00844801
O       1.50834832      0.89876701     -0.94618008
C       0.09464657      0.72154212     -1.30997324
C      -0.02626105     -0.42389237     -0.28984326
C      -0.98067058     -0.24093688      0.87037621
O      -2.30313143     -0.36334077      0.35373729
H       3.17819997     -0.07705276      0.69727953
H      -0.47902031      1.61905353     -1.08517950
H      -0.00324936      0.45316768     -2.35949489
H      -0.17539988     -1.40422257     -0.74132202
H      -0.82523183      0.74344195      1.32843418
H      -0.77196892     -1.00137698      1.62939565
H      -2.92967041     -0.25488492      1.07481114
