15
b3lypvtz=-214534.47810126
C       2.33137908     -0.74344613     -0.38134897
C       1.24296115     -0.16485574      0.14487215
O       1.27511155      1.08644433      0.72695920
N       0.01920464     -0.79653524      0.21153696
C      -1.10478936     -0.19731375      0.06177015
C      -1.33887717      1.23536795     -0.35625977
N      -2.24503029     -0.91073602      0.31710475
H       3.28611221     -0.23686783     -0.40427612
H       2.26440132     -1.73739693     -0.79117974
H       2.18305901      1.40727775      0.70641450
H      -1.29640479      1.89017203      0.51350439
H      -2.31605703      1.35007364     -0.82671651
H      -0.56917717      1.56226419     -1.05019552
H      -3.11381026     -0.61533707     -0.09005385
H      -2.12505489     -1.89862318      0.47196237
