13
b3lypvtz=-216166.6273563
C      -2.02487127     -0.08900087      1.10834981
C      -1.16488854     -0.23007348      0.08893889
O      -1.54329364     -0.44258028     -1.20563965
C       0.27161609     -0.16720194      0.28126107
C       1.18799656     -0.29819013     -0.68900838
C       2.62995981     -0.22036103     -0.39928492
O       3.10903313     -0.03841987      0.69923709
H      -1.65737909      0.07668436      2.10863774
H      -3.09679833     -0.13537417      0.96694120
H      -2.50415600     -0.47330886     -1.25901962
H       0.61273012     -0.00063150      1.29553119
H       0.89013011     -0.46540556     -1.71581898
H       3.29002106     -0.34283668     -1.28022543
