10
b3lypvtz=-223065.6411606852
C      -1.99845431      0.36664353     -0.06615354
C      -0.72358028     -0.03495459     -0.07393178
N       0.42963789      0.73858170     -0.09684142
C       1.35053728     -0.16053008     -0.09395964
N       0.87068879     -1.51268996     -0.07005313
N      -0.38713177     -1.42915227     -0.05787212
O       2.65989077      0.01992117     -0.11029544
H      -2.78384584     -0.37403309     -0.04755174
H      -2.25422816      1.41553012     -0.07813396
H       2.83648564      0.97068348     -0.12540085
