17
b3lypvtz=-215280.98319442
C      -2.54730292     -0.20166698      0.00005964
N      -1.21057806     -0.45837852     -0.52222225
C      -0.12857187     -0.34929516      0.44814781
C       0.99151803     -1.27442236     -0.01244125
O       2.16052976     -0.98194413     -0.05144708
C       0.37107510      1.07914268      0.70664826
N       0.78485964      1.69478589     -0.55816612
H      -2.66741283      0.77420755      0.49287252
H      -2.81559167     -0.97609510      0.72121487
H      -3.26634189     -0.25277855     -0.81768323
H      -0.99991267      0.18322453     -1.27936222
H      -0.48026112     -0.78015283      1.39514241
H       0.63262754     -2.26978796     -0.33967796
H       1.16425912      1.04986910      1.46255932
H      -0.45126653      1.66452882      1.12117350
H       0.83686876      2.70093199     -0.46962927
H       1.70912160      1.36548302     -0.81049797
