18
b3lypvtz=-205207.61271018
C      -2.45117214      0.02225191     -0.12817898
C      -0.96281970     -0.13081890     -0.37866613
C      -0.23170137     -1.41630184      0.09776763
C       0.97028587     -0.55810970      0.55704976
N       1.99970812     -0.45682641     -0.48116499
C       0.03483048      0.68869510      0.48392650
O       0.57607520      1.87496552     -0.03742651
H      -2.78787696      1.02959592     -0.38255589
H      -2.69313000     -0.15512844      0.92297823
H      -3.03385078     -0.68307697     -0.72546723
H      -0.73665319      0.04888449     -1.43137002
H      -0.73416156     -1.88857767      0.94277641
H      -0.02339098     -2.17903224     -0.65338440
H       1.37756567     -0.79408108      1.54470049
H       2.28411907     -1.37583745     -0.79751497
H       2.82700040      0.00010106     -0.11625762
H      -0.38902334      0.93111398      1.45985635
H       1.11134621      1.60237772     -0.79567864
