16
b3lypvtz=-181158.69828013
C       1.88547282     -1.13045290     -0.00334857
C       0.49591629     -0.57506288     -0.01103209
C       0.12062541      0.72694999     -0.01164430
N       0.91344605      1.86721035      0.07699979
C      -1.38375059      0.82516269      0.00549754
C      -1.81990278     -0.61595717      0.00240891
C      -0.72448680     -1.39069805     -0.00083393
H       2.62986152     -0.37945410     -0.27809067
H       1.98633570     -1.95652484     -0.71196255
H       2.16987105     -1.51817887      0.98025618
H       0.55789123      2.67062846     -0.41918960
H       1.89125773      1.72019641     -0.12344248
H      -1.72819398      1.36040984      0.89642582
H      -1.77093782      1.37630460     -0.85961681
H      -2.84956411     -0.93623921     -0.00971113
H      -0.71688375     -2.47287130     -0.00634811
