12
b3lypvtz=-249551.9795458
C      -0.49537152     -1.10334048     -0.16158833
C      -0.99399028      0.30246598      0.15954017
O       0.16459041      0.93957823      0.69004186
C       1.27982239      0.25347651      0.31006846
N       2.43485573      0.70585068      0.47799806
O       0.92597447     -0.94430642     -0.23682966
O      -1.42516122      0.90880314     -1.02210045
H      -0.74023757     -1.81832265      0.62496108
H      -0.86854937     -1.45035779     -1.12150318
H      -1.75771427      0.34441186      0.93705122
H       3.13107508      0.03518179      0.16869972
H      -1.65529384      1.82655916     -0.83707896
