18
b3lypvtz=-205211.84469055
N       3.37090420     -0.73417346     -0.06175628
C       2.30314984      0.14906164     -0.21943610
C       1.12081618      0.09206441      0.39775718
C       0.05833236      1.14578267      0.26233666
C      -1.24667032      0.67530782     -0.40700242
C      -2.01395881     -0.37270878      0.39061786
O      -3.26494613     -0.71286603     -0.20391176
H       3.13144313     -1.62291229      0.35216084
H       3.94791425     -0.85224342     -0.87961925
H       2.53063032      0.98719419     -0.87093930
H       0.91569091     -0.74825009      1.05571600
H       0.46023500      1.98239319     -0.31482361
H      -0.19128339      1.55489484      1.24916870
H      -1.01349919      0.27255804     -1.39896859
H      -1.90764264      1.53310409     -0.55764518
H      -1.40343976     -1.27107225      0.53741279
H      -2.26075845      0.01746495      1.38024464
H      -3.09285750     -1.09279753     -1.07087516
