14
b3lypvtz=-203697.88697042
C       2.46572021     -0.02820806      0.44659198
N       1.42850823     -0.85692216     -0.14786315
C       0.24535985     -0.42315858     -0.15914580
C      -0.94163702     -1.08824075     -0.70231980
C      -2.00086017     -0.30473533     -0.52100029
C      -1.56751481      0.95247720      0.16835387
O      -0.15490832      0.79746580      0.35647167
H       2.26386354      0.18206406      1.50166545
H       2.55629549      0.93716257     -0.06137878
H       3.42007472     -0.54680291      0.37460460
H      -0.89625462     -2.06048092     -1.16413350
H      -3.02265577     -0.50232846     -0.80745740
H      -2.04437845      1.09033030      1.14366489
H      -1.75161290      1.85137724     -0.42805375
