14
b3lypvtz=-231973.20851774
C       2.94085474     -0.39898663     -0.30113495
C       1.81878742     -0.17806489      0.06150066
C       0.45646720      0.10536325      0.52263026
O       0.27894069      1.49309928      0.82482720
C      -0.59067127     -0.25656398     -0.53483119
C      -2.00833825     -0.10199516     -0.02639972
F      -2.24311613     -1.01583763      1.00888220
H       3.93217389     -0.59544278     -0.62572152
H       0.26309260     -0.49802379      1.41708826
H       0.94359155      1.75323246      1.47023443
H      -0.44933416      0.39454076     -1.40056831
H      -0.42956033     -1.28509956     -0.86054743
H      -2.73032249     -0.31283687     -0.81702625
H      -2.18266546      0.89671554      0.37276636
