14
b3lypvtz=-231998.34369837
O      -0.00068407      1.73486696      0.00001798
C      -0.33009334      0.56618681      0.00000318
C      -1.82222005      0.25433064      0.00000238
F      -2.10209953     -1.10643038     -0.00001436
C       0.63117837     -0.55693411     -0.00001059
C       1.94609887     -0.34783385     -0.74077877
C       1.94608772     -0.34785941      0.74078607
H      -2.27190219      0.70223359      0.88815820
H      -2.27190681      0.70225651     -0.88813952
H       0.20984042     -1.54932586     -0.00002966
H       2.34265352     -1.20426256     -1.26688183
H       2.05457055      0.60455199     -1.23974100
H       2.34263376     -1.20430640      1.26686584
H       2.05455179      0.60450907      1.23978308
