15
b3lypvtz=-240213.71323002
C      -2.42797300      1.01025815      0.33994683
O      -2.18369855     -0.15131720     -0.44858469
C      -1.10838944     -0.90318373     -0.02964635
O       0.09421038     -0.17281795     -0.22577927
C       1.23043253     -0.84300600      0.22338816
C       2.46307252      0.02364335      0.13504667
O       2.49055940      1.16602535     -0.22734062
H      -1.61058274      1.72689075      0.25274907
H      -3.34612599      1.45400465     -0.03742952
H      -2.56379262      0.74229664      1.39424749
H      -1.19124365     -1.16841272      1.03955333
H      -1.10304997     -1.81533282     -0.63634772
H       1.43326171     -1.76103967     -0.35473706
H       1.14034902     -1.16410448      1.27617782
H       3.38556939     -0.50964333      0.45312983
