16
b3lypvtz=-204446.51441985
C      -2.17179648      0.18877206     -0.18406838
C      -0.73631075      0.29196362      0.26488529
N      -0.32593121      1.06084591      1.20229691
C       0.23632429     -0.54129238     -0.46981014
C       1.41419092     -1.18151356      0.27104775
C       1.68311130     -0.02873588     -0.62248377
O       2.04865896      1.21197821     -0.13861147
H      -2.53061089     -0.83799287     -0.08035748
H      -2.81922113      0.84777725      0.39339002
H      -2.25753323      0.44966929     -1.24157659
H      -1.08524187      1.59835139      1.61406489
H      -0.17009659     -1.10187612     -1.30050154
H       1.45021602     -0.99045977      1.33512071
H       1.70371311     -2.17692994     -0.03800654
H       2.14371036     -0.22531411     -1.58183913
H       1.41681719      1.43495689      0.57644948
