11
b3lypvtz=-236328.49174863
N      -0.29837296      1.50261448      0.15789701
C      -0.39873085      0.24090034      0.14052614
C      -1.68295591     -0.47135392      0.53358172
O      -2.64957512      0.16237168      0.87531850
C       0.77111957     -0.62544395     -0.27787921
N       1.88013749      0.06103261     -0.61479241
O       0.66369537     -1.84136936     -0.29096144
H      -1.18750389      1.91268256      0.46607102
H      -1.67326048     -1.56829711      0.48749937
H       1.87355668      1.06639320     -0.57272776
H       2.70189011     -0.43943054     -0.90453295
