18
b3lypvtz=-181915.22189463
C       3.20605387     -0.50038013      0.18095869
C       2.04699125      0.16592902      0.11184537
C       0.76435739     -0.41912992     -0.20279009
C      -0.42165534      0.22846801     -0.26206007
N      -0.59733634      1.57463398      0.03763479
C      -1.70153286     -0.50062515     -0.57884802
C      -2.65420303     -0.62429672      0.62004113
H       3.25625412     -1.56786624      0.00201656
H       4.13359552      0.00074423      0.41960137
H       2.07842102      1.23374288      0.31425400
H       0.75163275     -1.48425057     -0.39866690
H      -1.36461380      2.02632240     -0.43467478
H       0.23049638      2.14730557      0.05200040
H      -2.21728555      0.02146354     -1.39409598
H      -1.45384643     -1.49254683     -0.95539314
H      -2.18633247     -1.19276432      1.42466586
H      -2.92367819      0.35380426      1.01857343
H      -3.57244827     -1.13716203      0.32975140
