15
b3lypvtz=-193597.29196883
C       1.57345477      0.40485856      0.20510784
C       0.69329827     -0.80636006      0.33069387
C       0.31399932      0.48829816      1.02944998
C      -0.91964492      1.00919246      0.33415019
C      -1.32278492      0.06994055     -0.72187403
C      -0.35883474     -1.10473401     -0.74062908
O      -0.73690271      1.33908388     -1.05408615
H       1.59120031      0.94328353     -0.73075364
H       2.51167131      0.38302829      0.74289856
H       1.07588617     -1.64176280      0.90128645
H       0.37891575      0.60355837      2.10195220
H      -1.61715088      1.64199556      0.86928976
H      -2.34688806     -0.05900169     -1.05577484
H       0.07011355     -1.25792576     -1.73351951
H      -0.90633319     -2.01345506     -0.47819160
