13
b3lypvtz=-190466.4095783
C       1.45865621     -1.54009744     -0.00000689
C       0.38384173     -0.74517744     -0.00001225
N      -0.94695869     -1.23090979      0.00003021
C      -1.69954975     -0.18852008      0.00001298
N      -1.03244677      1.01123150     -0.00000553
H      -1.45158567      1.92283916      0.00003365
C       0.34292258      0.74590020      0.00000534
C       1.32412875      1.65403274      0.00000624
H       2.46089433     -1.13780103     -0.00001420
H       1.33500470     -2.61267404     -0.00000297
H      -2.78062680     -0.21547860     -0.00002848
H       2.35739075      1.34424754      0.00001597
H       1.12033664      2.71544428     -0.00000106
