14
b3lypvtz=-201298.05414609
C       1.33005222     -0.29298748      0.78421708
C       2.39932102     -0.35883061     -0.21807162
N       3.21350927     -0.42785032     -1.02844016
C      -0.03869203     -0.19744326      0.15751799
C      -0.84780827      0.83679295      0.41759947
N      -2.14685973      0.97925076     -0.10846431
N      -0.40659174     -1.31352086     -0.61669632
H       1.40261501     -1.19517428      1.40023126
H       1.51389260      0.56827313      1.42692980
H      -0.54459134      1.58496431      1.13660532
H      -2.53882035      1.89351104      0.05535143
H      -2.20872607      0.76383170     -1.09578066
H       0.23247003     -1.54353383     -1.36634505
H      -1.35977063     -1.29728324     -0.94465422
