12
b3lypvtz=-249491.12613058186
C      -1.02074857     -0.83334869      0.50578197
C      -0.42552787      0.49601206      0.16292704
C       0.82102879      0.75329560     -0.27892598
N       1.81567575     -0.24577559     -0.49981067
O       1.55353517     -1.43116650     -0.28337984
O       2.90415458      0.15310672     -0.90453284
O      -1.21830196      1.58199039      0.30717687
H      -2.05467804     -0.71308712      0.83606789
H      -0.99504631     -1.50285564     -0.35202608
H      -0.44926298     -1.32351473      1.29184451
H       1.15586044      1.75168847     -0.49919331
H      -2.08668902      1.31365503      0.62467352
