18
b3lypvtz=-181896.65829441
C      -3.19085132      0.16601392     -0.23149765
C      -2.01271319      0.02037493      0.38187223
N      -0.84932069     -0.49088054     -0.16230660
C       0.44450150     -0.13367199      0.35858538
C       1.22868954      1.11084726     -0.16315723
C       2.52623075      0.27231702     -0.04510132
C       1.65277809     -1.00868928     -0.04544689
H      -3.32887474     -0.07311586     -1.27862482
H      -4.05186335      0.51104063      0.31920917
H      -1.91469574      0.27865453      1.43136165
H      -0.87531804     -0.63625844     -1.16133130
H       0.36099200     -0.08592469      1.44605157
H       0.97637842      1.31403236     -1.20557762
H       1.15453840      2.03843997      0.40369236
H       3.02129731      0.42352983      0.91413405
H       3.26580863      0.37524160     -0.83673877
H       1.92692436     -1.83302958      0.61164908
H       1.52434909     -1.39816867     -1.05761730
