18
b3lypvtz=-205198.25530773
C      -2.33461818     -0.58910319      0.12306417
C      -1.10922809     -0.35282143     -0.75869425
C       0.05948664      0.32070737     -0.04138340
O      -0.31961100      1.57064956      0.51937801
C       0.79812684     -0.55679801      0.99533765
N       1.99295127     -0.65896908      0.10770458
C       1.38772288      0.31159706     -0.84906687
H      -3.14195820     -1.05009619     -0.44742200
H      -2.70368546      0.34707993      0.54099554
H      -2.10057737     -1.25147637      0.95851429
H      -0.75864875     -1.30208469     -1.17454492
H      -1.38383243      0.26748422     -1.62113135
H      -0.73192159      2.10696261     -0.16672439
H       1.02173123     -0.01369238      1.91442503
H       0.32078687     -1.50466290      1.25050858
H       2.07997430     -1.58084932     -0.29907983
H       1.31643070     -0.03091939     -1.88431223
H       1.90206735      1.27443522     -0.82575959
