13
b3lypvtz=-211389.00896436
C      -0.62130241     -1.19280117      0.20094955
C      -1.09666115      0.08173744      0.06630254
N      -0.06077695      0.97616274     -0.10032391
C       1.03582889      0.25362208     -0.07662293
N       0.77385572     -1.06013954      0.11695791
N       2.32311215      0.73348897     -0.30247047
N      -2.40559131      0.55891367      0.15626690
H      -1.09724907     -2.13446243      0.40096062
H       1.43190731     -1.81043627      0.00731952
H       2.30749364      1.74013211     -0.38388591
H       2.99375803      0.45135422      0.39960683
H      -2.48733495      1.47346539     -0.26380239
H      -3.09703991     -0.07103721     -0.22125826
