16
b3lypvtz=-181150.41962922
C      -0.29873497      1.57354609      0.02582717
C       1.00063009      1.26628807      0.13177394
C       1.66797688     -0.06779284      0.02530007
C       0.78845941     -1.23608477     -0.40967509
C      -0.50166018     -1.38655670      0.40998735
N      -1.61234464     -0.55465772     -0.03168891
C      -1.46262188      0.69936648     -0.18306248
H      -0.55920859      2.62571220      0.08699001
H       1.68227204      2.09539591      0.29943343
H       2.13320935     -0.28966756      0.99364411
H       2.51087590      0.03015764     -0.66886924
H       0.51537235     -1.12819644     -1.46201875
H       1.37039087     -2.15762956     -0.33403321
H      -0.84323656     -2.42114405      0.36252173
H      -0.29433413     -1.17408971      1.46656340
H      -2.35885393      1.23991296     -0.49426854
