12
b3lypvtz=-247110.501434
C      -1.68136597     -1.12668245      0.40104186
N      -0.48695387     -0.84208659      0.74834543
N      -0.27332871      0.59438808      0.66694436
N       0.97952098      0.96229354      0.16432890
C       1.57570201      0.18012266     -0.63046756
O       2.75694189      0.52588862     -1.18726898
O      -2.62696070     -0.27356024      0.00022423
H      -2.00577551     -2.16034717      0.41794037
H      -0.28729392      0.94029543      1.62054590
H       1.23748528     -0.80051714     -0.94138808
H       2.99138119      1.40287107     -0.85130623
H      -2.17935266      0.59733419     -0.02789215
