15
b3lypvtz=-214521.10633245
N       1.74184053     -1.61585454      0.46794108
C       1.45652205     -0.38600703      0.36955733
O       2.39706847      0.59857481      0.21297965
N       0.16273554      0.08195543      0.42224020
C      -0.42556402      1.04884074     -0.53852414
C      -1.77519104      0.30579071     -0.39607640
C      -1.00108894     -0.82019758      0.33190123
H       2.74786762     -1.74773315      0.51174115
H       2.01020758      1.45426640      0.43272300
H      -0.40320413      2.08946229     -0.21046877
H       0.01243006      0.97757730     -1.53800322
H      -2.48230791      0.82782969      0.24423558
H      -2.26620323      0.02882310     -1.32470361
H      -1.38387454     -1.14671409      1.29772507
H      -0.79143804     -1.69661409     -0.28336816
