12
b3lypvtz=-228831.29576568
C      -2.61234718     -0.77161158      0.00000266
C      -1.49048630     -0.05645678      0.00000178
F      -1.56813987      1.30196390      0.00000224
N      -0.23577498     -0.60723530     -0.00000107
C       0.80807015      0.13214141     -0.00000226
C       2.13858369     -0.48481419     -0.00000704
N       3.24433865      0.14282379     -0.00000092
H      -2.54486175     -1.84693221      0.00000186
H      -3.57738067     -0.29016622      0.00000384
H       0.76260305      1.22386364     -0.00000677
H       2.14949492     -1.57422477     -0.00000130
H       3.09031429      1.15498332     -0.00000100
