18
b3lypvtz=-181885.18599678
C       2.52681670     -0.34962687     -0.27238896
C       1.23442430      0.22077359      0.27456716
C       0.18574677      0.78658559     -0.71970775
C      -0.83732738     -0.05448993      0.04014688
N       0.23486431     -0.80035899      0.71216607
C      -2.13136856     -0.63003363     -0.41976560
C      -2.10486414      0.42169714      0.67941233
H       3.15977458      0.44233260     -0.68084406
H       3.09063397     -0.85880033      0.51233878
H       2.31921095     -1.07395991     -1.06123053
H       1.45249475      0.95209472      1.06079252
H       0.03759766      1.86484406     -0.71262540
H       0.34742963      0.44834234     -1.74400430
H       0.12871426     -0.88505753      1.71682204
H      -2.35217599     -1.64936791     -0.13100300
H      -2.50891957     -0.34433887     -1.39324421
H      -2.31999103      0.09189240      1.68848790
H      -2.46306123      1.41747152      0.45008009
