12
b3lypvtz=-252139.37112406
C       1.06327252      0.13173188      1.15381142
N       2.04094450     -0.63901795      1.41859613
C      -0.00975602     -0.13218979      0.18967875
C      -0.86962119      0.84079831     -0.13955107
O      -0.75807394      2.13800818      0.18664989
F      -1.90381151      0.59629013     -0.97865638
N      -0.03745440     -1.40422849     -0.42234537
H       0.98683473      1.07134009      1.69688072
H       2.01637001     -1.46320045      0.81355717
H      -1.63269341      2.50201618      0.37672224
H      -0.13065736     -2.15216341      0.25409487
H      -0.76535395     -1.48938468     -1.11661130
