11
b3lypvtz=-238716.34089904
C      -0.68607262     -1.06546780      0.26101158
C       0.17387689      0.07053920     -0.28822442
C      -0.98091496      0.96365267      0.21989565
O      -1.23908771      2.11991794      0.24663588
O      -1.70706249     -0.08942567      0.69039968
C       1.51474088      0.33487335      0.35275458
O       2.03482894     -0.40210169      1.14750675
H      -1.10478240     -1.75374688     -0.46782286
H      -0.26878125     -1.58690455      1.11712891
H       0.26884098      0.12741387     -1.37388083
H       1.99441373      1.28124956      0.04132562
