17
b3lypvtz=-191945.0078863212
C       2.17265116      0.20718499      0.46968856
C       1.14360056     -0.11344254     -0.62044384
C      -0.27064858      0.00990639     -0.14639618
C      -1.04609410     -0.95702761      0.75627533
N      -2.29188181     -0.66251372     -0.03294934
C      -1.54757992      0.29625891     -0.83132338
N      -0.94607168      1.32710050      0.05373522
H       2.07237724     -0.47317389      1.31729122
H       3.18960885      0.11366855      0.08669755
H       2.04396304      1.22351833      0.84489440
H       1.30464807     -1.13054403     -0.98999652
H       1.29309406      0.55109813     -1.47712418
H      -1.08178363     -0.68507609      1.81204390
H      -0.75213791     -2.00182862      0.64493348
H      -3.02559505     -0.22687811      0.51844190
H      -1.78937336      0.52038065     -1.86187399
H      -0.46877694      2.00136817     -0.54389413
