15
b3lypvtz=-191220.81944596
C       2.45743253     -0.38126630     -0.28651652
C       1.36912531     -0.92445901      0.23911003
C       0.04304203     -0.24051842      0.47260352
C       0.07406741      1.18919658      0.17050722
N       0.06257949      2.30877099     -0.09554359
C      -1.10509213     -0.92945605     -0.34089318
N      -2.44588264     -0.42452970     -0.13034746
H       3.35527467     -0.96689781     -0.43004765
H       2.49418993      0.65875644     -0.58525576
H       1.37589198     -1.97026440      0.52899973
H      -0.21587762     -0.33606366      1.53381810
H      -0.86140481     -0.85024724     -1.40105796
H      -1.08416446     -1.99086323     -0.08693782
H      -2.73148240     -0.50107896      0.83815712
H      -2.52379329      0.54870576     -0.39962576
