16
b3lypvtz=-202019.34787269725
C      -0.57618902      1.35465481      0.36967358
N      -0.60219422      0.07765977     -0.32566891
C      -1.89251782     -0.57891560     -0.18751165
C       0.49198702     -0.80553625      0.07777576
C       1.84072956     -0.31002391     -0.35538717
N       2.73418017      0.03720790      0.51235266
N       3.51227503      0.32716669      1.28691510
H      -0.73996333      1.25136069      1.45724154
H       0.38474249      1.84392296      0.21592980
H      -1.35502761      2.00533244     -0.02900743
H      -2.14101400     -0.83069060      0.85862897
H      -1.90607461     -1.50123463     -0.76968913
H      -2.67853320      0.07347210     -0.56922388
H       0.50849544     -0.97401547      1.16907608
H       0.30370446     -1.77753612     -0.38538112
H       2.11539964     -0.19282477     -1.39205702
