17
b3lypvtz=-191976.62691527
C       3.08607759      0.16310644      0.33795849
C       2.05760748     -0.13822982     -0.44480053
C       0.79914844     -0.81271340      0.00835159
C      -0.44380402      0.07242941     -0.02682505
N      -0.45012940      1.33903679     -0.06201809
C      -1.76503602     -0.68099103     -0.00328736
N      -2.97865686      0.10955226      0.09424561
H       3.96863137      0.65491387     -0.04942469
H       3.08557467     -0.07733115      1.39490125
H       2.10129774      0.12477281     -1.49785627
H       0.60557651     -1.69662387     -0.60953897
H       0.91577573     -1.18389169      1.03176181
H       0.50005483      1.71220603     -0.07731409
H      -1.81056764     -1.29323212     -0.91177716
H      -1.73896575     -1.40064963      0.82209842
H      -2.97474074      0.61865663      0.97149997
H      -2.95504694      0.83205549     -0.61767792
