16
b3lypvtz=-204420.90324191
C      -0.47592920      1.28648656      0.30937743
C       0.91309939      0.85128363     -0.15598839
C       0.31638853     -0.39900483     -0.82391789
C      -1.08727756      0.03500097     -0.40619446
N      -1.81520480     -0.89700287      0.45017491
C       1.22015261     -0.52517047      0.35629993
O       2.47745054     -1.05597823      0.02049300
H      -0.62556503      1.31834594      1.39047886
H      -0.81286963      2.22493057     -0.12759848
H       1.70042423      1.49108015     -0.52912081
H       0.59133949     -0.86163911     -1.76146417
H      -1.65448584      0.35487923     -1.28765379
H      -2.72986854     -0.52579971      0.68305627
H      -1.97076214     -1.77324578     -0.03653739
H       0.81911583     -0.85568708      1.31090092
H       3.13399212     -0.66847896      0.60769404
