15
b3lypvtz=-193592.44416321
C       1.27371521     -0.17062533      0.70848008
C       0.67926033      1.04412212     -0.00341820
C      -0.79422617      0.81150070     -0.28603011
C       0.23215345      0.18152466     -1.17323844
C       0.49394162     -1.06938761     -0.30335873
O      -0.76274868     -1.48635465      0.21711433
C      -1.51185642     -0.28783827      0.48221257
H       1.05157227     -0.32721826      1.76613755
H       2.35067541     -0.23580302      0.55121252
H       1.09945006      2.04000272     -0.03025588
H      -1.35952102      1.65550873     -0.65499049
H       0.32313586      0.30912914     -2.24094682
H       1.00246237     -1.93295690     -0.72014641
H      -2.53433197     -0.43254064      0.12722243
H      -1.54368231     -0.09906338      1.56000560
