15
b3lypvtz=-191174.73636129
C       3.43018745      0.41596490      0.61773991
C       2.33667462      0.33450635      0.12798231
C       1.03895443      0.22183861     -0.47681956
N       0.35992755     -1.09751185     -0.53777397
C      -0.15985530     -0.06202295      0.36293213
C      -1.51495166      0.49184015      0.01125281
N      -2.55108608     -0.43393211      0.47235976
H       4.39473128      0.49301959      1.05358146
H       0.90215227      0.81322851     -1.37503899
H       0.90675959     -1.77639353     -0.01786045
H       0.01828223     -0.19573182      1.42381208
H      -1.65373067      1.44685070      0.52434166
H      -1.54097863      0.69117475     -1.06879103
H      -3.47315331     -0.04792028      0.31045211
H      -2.49391377     -1.29491100     -0.06017023
