16
b3lypvtz=-204436.04836504
C      -0.75064186      1.04439126     -0.27083490
C      -1.53349102     -0.26912292     -0.50544405
N      -0.64912366     -1.37873587     -0.09996615
C       0.27513345     -0.85405305      0.88333234
C       0.26824741      0.66451721      0.79867365
C       1.48517368     -0.12249116      0.37507210
O       1.80899802     -0.29274817     -0.97859900
H      -1.39511429      1.85403844      0.07315567
H      -0.26577134      1.37997881     -1.19051942
H      -2.42809774     -0.27947669      0.12359762
H      -1.85714704     -0.40262063     -1.53829131
H      -0.13006976     -1.70560858     -0.90568950
H       0.33344389     -1.36873671      1.83406626
H       0.34819656      1.27260809      1.68936493
H       2.34565678     -0.08221976      1.03645947
H       2.14460691      0.54027973     -1.32437770
