19
b3lypvtz=-195143.58068388
C       1.29162605     -1.33135441     -0.89235323
C       0.92254128     -0.28130840     -0.15731581
C       1.71038955      0.13962850      1.05573613
C      -0.33663954      0.49631950     -0.49600396
C      -0.15150668      2.01795195     -0.45420761
C      -1.49468776      0.07147557      0.42782260
O      -1.84143525     -1.29594144      0.29505511
H       0.73910160     -1.62630757     -1.77566037
H       2.16791595     -1.91833401     -0.64583676
H       2.50884425     -0.56900079      1.27106871
H       1.07704485      0.21724688      1.94299447
H       2.16321503      1.12305123      0.90923227
H      -0.63459364      0.21271742     -1.50843286
H      -1.05441408      2.51905106     -0.80673531
H       0.67522834      2.33272132     -1.09238125
H       0.05069910      2.37688352      0.55642142
H      -2.38926521      0.63729950      0.16313806
H      -1.25022896      0.31649477      1.47038506
H      -1.02722989     -1.81194859      0.33522535
