16
b3lypvtz=-204462.12398156
N      -2.31101052     -0.96848264     -0.51695748
C      -1.19153740     -0.46753221     -0.20720666
C      -0.79484439      1.00165608     -0.09814680
C       0.55620693      0.98249817      0.63181442
C       1.19736298     -0.34668211      0.19133063
O       1.71982447     -0.25986598     -1.13813879
C       0.01901707     -1.31763114      0.14204467
H      -3.00249110     -0.23919250     -0.69868261
H      -0.67695550      1.40064014     -1.10821027
H      -1.56151555      1.59217986      0.40347183
H       1.19019589      1.84018794      0.40154830
H       0.40660999      0.96852207      1.71451509
H       1.98059801     -0.67563743      0.88044765
H       2.43485997      0.38396570     -1.14614180
H      -0.13969091     -1.77306442      1.12300097
H       0.17337003     -2.12156154     -0.57478914
