15
b3lypvtz=-216905.19677641
O       2.69514910     -0.17614730     -0.07269358
C       1.32702302     -0.31445791     -0.33227871
C       0.52705299      0.94341946     -0.28361808
O      -0.63269899      0.97014280     -1.07855742
C      -1.71084422      0.40623456     -0.31586965
C      -1.07055147     -0.62033648      0.63559726
C       0.34807773     -0.08504005      0.80373101
H       2.99214612     -0.94224163      0.42923176
H       1.05503979     -1.03675390     -1.09848917
H       1.02270366      1.89298262     -0.12672689
H      -2.21614822      1.19765107      0.24977183
H      -2.41971966     -0.02729178     -1.02006837
H      -1.07819754     -1.62094897      0.19812334
H      -1.59555391     -0.67019376      1.58943572
H       0.75652158      0.08278128      1.79021095
