22
b3lypvtz=-183437.66833702
C       1.93032922      1.10942993     -0.43486097
C       1.39444945     -0.32791614     -0.40569157
C       1.74117751     -1.02167050      0.91648106
C      -0.09613711     -0.47622397     -0.78770697
C      -1.19008767     -0.15694902      0.24477515
C      -1.28695816      1.32296097      0.63615456
N      -2.45617651     -0.68893310     -0.29127172
H       1.53960851      1.71719718      0.38135844
H       3.01878368      1.10989122     -0.34425332
H       1.67641922      1.60811840     -1.37249953
H       1.93326817     -0.86474863     -1.19398476
H       1.30148665     -0.50394844      1.77184500
H       2.82193300     -1.04130730      1.07010335
H       1.38364290     -2.05333805      0.93236996
H      -0.26206956     -1.51631763     -1.07710678
H      -0.28647707      0.12202016     -1.68743351
H      -0.98598550     -0.73603440      1.14973243
H      -1.41558210      1.95136101     -0.24948749
H      -2.14864394      1.48384786      1.28804105
H      -0.40403816      1.67358069      1.17083037
H      -3.21039412     -0.52332496      0.36615014
H      -2.70665040     -0.19216928     -1.14093789
