13
b3lypvtz=-192841.23983358
C      -0.36962417      1.81554041      0.05032254
C      -0.08054629      0.33770289      0.00574825
C      -1.01390753     -0.56250001     -0.36619900
C      -0.79405801     -2.00824928     -0.43029019
O      -1.65309006     -2.79503641     -0.76719590
C       1.24240758     -0.03678163      0.38301154
C       2.37565742     -0.26409449      0.71516336
H      -1.39473859      2.02438505     -0.24930072
H      -0.20722431      2.20392147      1.05777449
H       0.31142454      2.35541885     -0.61076712
H      -2.00562420     -0.22610405     -0.64319343
H       0.21708690     -2.35557063     -0.15013970
H       3.37223672     -0.48863214      1.00506584
