11
b3lypvtz=-269604.44641511
C      -1.51214305      0.88127414      0.09947270
C      -1.11932322     -0.38736728      0.14266359
F      -2.03539242     -1.36000414      0.34259256
C       0.22900224     -0.92725864     -0.00079738
F       0.30474803     -2.27657261      0.09324134
C       1.38002991     -0.28140338     -0.20890802
O       1.45036143      1.07479391     -0.32368548
H      -2.55746771      1.11995589      0.22438799
H      -0.79920989      1.67153784     -0.05857556
H       2.29632807     -0.85090061     -0.29051324
H       2.36306661      1.33594488     -0.46997850
