16
b3lypvtz=-181134.44096643
C       3.03459477     -0.42055964      0.02279197
C       2.01949937      0.72422495      0.16143899
C       0.63423065      0.28540987      0.04936287
C      -0.49455019     -0.12308545     -0.04921913
C      -1.86733374     -0.53770460     -0.15559857
C      -2.88506063      0.57309385     -0.01705089
N      -2.13143910     -1.77049721     -0.35233374
H       4.05138837     -0.03691002      0.11464116
H       2.93667997     -0.90966778     -0.94587614
H       2.87856056     -1.17239693      0.79577519
H       2.15425704      1.22502886      1.12488541
H       2.21171436      1.48499131     -0.60111061
H      -2.72405523      1.33344125     -0.78368331
H      -2.77741528      1.06786369      0.95013326
H      -3.89936348      0.18502825     -0.10776449
H      -3.14150744     -1.90816041     -0.40459196
