11
b3lypvtz=-192047.83434975
C       3.34281932     -0.84587116      0.00004425
C       2.46216504     -0.03463112      0.00003016
C       1.39896183      0.97073354      0.00001749
C       0.04972365      0.41227532      0.00000776
C      -1.07668527     -0.01219062     -0.00000137
C      -2.40193290     -0.57954899     -0.00001072
O      -3.42078423      0.07060450     -0.00005653
H       4.12115338     -1.56773174      0.00005579
H       1.50928644      1.62283377     -0.87313813
H       1.50927079      1.62283804      0.87317209
H      -2.42420403     -1.68423255      0.00002922
