20
b3lypvtz=-182668.59431342
C      -2.82675783     -1.04224805     -0.26433937
C      -1.89252080     -0.37201872      0.39807632
C      -0.69114939      0.29529250     -0.21323664
C      -0.73274285      1.80968419      0.05244860
C       0.60538382     -0.35667743      0.31264893
C       1.89233447      0.10614429     -0.38290856
N       3.12004807     -0.56736920      0.04611554
H      -2.78640870     -1.15780812     -1.34164511
H      -3.66628125     -1.49973618      0.24277167
H      -1.97645735     -0.28055719      1.47942080
H      -0.73319403      0.13527364     -1.29609921
H      -0.67561402      2.01688268      1.12424622
H      -1.66184595      2.24180529     -0.32072884
H       0.09479380      2.32809449     -0.43229728
H       0.52195593     -1.44125767      0.19380359
H       0.69128576     -0.17079972      1.38979727
H       2.04041264      1.17746216     -0.23535098
H       1.79189385     -0.04156222     -1.46223675
H       3.03466784     -1.56983989     -0.08054727
H       3.27752100     -0.41666485      1.03630607
