15
b3lypvtz=-214534.15786435
C      -2.61918972     -0.49869970      0.59396460
C      -1.62270987     -0.51078961     -0.57524101
C      -0.32064297      0.16782928     -0.25141993
O      -0.38225092      1.50977974     -0.02137478
N       0.76848841     -0.48580347     -0.18599585
C       1.97513008      0.16268542      0.12161596
N       3.08326583     -0.44456734      0.22321006
H      -3.53975261     -1.00725902      0.30861078
H      -2.88743754      0.51440672      0.90120695
H      -2.20242124     -1.01027194      1.46155410
H      -1.38925477     -1.53281836     -0.86274213
H      -2.06769656     -0.01741123     -1.44654743
H      -1.28473153      1.82665108     -0.13359925
H       1.95692055      1.24027848      0.27928353
H       2.93402385     -1.44171106      0.04858040
