16
b3lypvtz=-181141.983304
C      -3.48795063      0.52849931     -0.09437500
C      -2.39255438     -0.19962598     -0.32060434
C      -1.09928542      0.05227665      0.28867823
C      -0.00545368     -0.68221278      0.06537756
C       1.33782260     -0.43262725      0.68685280
C       2.41295040     -0.16628852     -0.34469455
N       3.19708197      0.82316315     -0.41131103
H      -4.42927916      0.30066412     -0.57478186
H      -3.47422873      1.37677379      0.57957347
H      -2.44785887     -1.04265843     -1.00329584
H      -1.04164405      0.89633840      0.97125522
H      -0.06948041     -1.52290517     -0.62047601
H       1.28990167      0.39936602      1.39262647
H       1.64308725     -1.32384916      1.25162631
H       2.51459368     -0.93321451     -1.11758982
H       3.02030077      1.48358836      0.34975639
