19
b3lypvtz=-195136.93230886
C      -3.33938689     -0.82531827      0.09739427
C      -2.27362247      0.22494657      0.17467645
C      -1.05198145      0.11816067     -0.33784186
C       0.01007306      1.17516777     -0.25708718
C       1.29988270      0.69295434      0.39892605
O       1.87277849     -0.32392027     -0.40409337
C       3.05086039     -0.86760899      0.14891034
H      -4.22729774     -0.45088953     -0.42039194
H      -2.98831464     -1.71226032     -0.43117099
H      -3.66699889     -1.13153468      1.09511466
H      -2.54494572      1.14275055      0.69256065
H      -0.77018714     -0.79419342     -0.85516661
H       0.26428759      1.52744205     -1.26239047
H      -0.36101297      2.03784865      0.30206230
H       1.09319097      0.30576873      1.40647708
H       2.00537226      1.52976605      0.50201306
H       2.86196078     -1.32994145      1.12617665
H       3.82879549     -0.10309982      0.27322333
H       3.41292119     -1.63020765     -0.53873141
