19
b3lypvtz=-195159.82361601
O       2.63254727      0.42852353     -0.02137823
C       1.24633465      0.30244857     -0.34299538
C       0.37796469      1.24679916      0.48907980
C      -1.10672507      1.12184068      0.12539049
C      -1.59479455     -0.32637573      0.23721509
C      -0.72270245     -1.27707723     -0.58961652
C       0.76106381     -1.14298855     -0.22506749
H       2.75150781      0.17347948      0.89993702
H       1.18758506      0.60697290     -1.39239120
H       0.72958085      2.27144956      0.35403529
H       0.51486841      1.00152547      1.54991507
H      -1.25585657      1.47424263     -0.90091544
H      -1.70472640      1.77541224      0.76432705
H      -2.63742435     -0.39850906     -0.08093590
H      -1.56856376     -0.63521818      1.28794347
H      -1.04950992     -2.31014189     -0.45196426
H      -0.85335696     -1.05243898     -1.65354480
H       1.37924871     -1.78261565     -0.85796695
H       0.91305877     -1.47752897      0.80903287
