12
b3lypvtz=-252130.71262284
C      -2.19825717      0.00395606     -0.11980106
N      -0.86283471     -0.04168329      0.44237147
N       0.14912869     -0.21226727     -0.39898887
C       1.34415246      0.02622703     -0.02107827
F       1.60369829      0.50190829      1.21904129
C       2.48040249     -0.20071947     -0.91006644
O       3.63193988      0.01846034     -0.61663146
H      -2.40162385      0.94030502     -0.64907132
H      -2.31611420     -0.82378626     -0.81594559
H      -2.91995034     -0.10998111      0.68746720
H      -0.68145918      0.49348128      1.28242487
H       2.17091764     -0.59600062     -1.89372182
