11
b3lypvtz=-236322.34434579732
C      -1.69489407     -0.52841683      0.14803353
C      -0.19583107     -0.37097803      0.25362114
O       0.59613057     -1.29433400      0.33944301
N       0.26084914      0.91267241      0.24873195
N       1.60358288      1.19461026      0.33865837
C       2.47484759      0.32860893      0.42830262
O       3.48108705     -0.24880728      0.51922458
H      -2.06779515     -0.08963753     -0.77870079
H      -1.93145299     -1.58791578      0.16190452
H      -2.19741618     -0.03764964      0.98290274
H      -0.32910776      1.72184750      0.18134737
