14
b3lypvtz=-222148.24749809
N       3.54951627     -0.23156542      0.08110766
C       2.26931298      0.35209371      0.13312686
C       1.12555257     -0.26551267     -0.17163805
N      -0.09443476      0.39124400     -0.35895879
N      -1.23701963     -0.29842159     -0.11697974
N      -2.22689661      0.43613295      0.04466980
N      -3.40995916     -0.27997151      0.11756714
H       4.12760711      0.01061911      0.87437819
H       3.52612558     -1.23659813     -0.02672625
H       2.27704570      1.41531095      0.34785258
H       1.07767475     -1.32849084     -0.36989999
H      -0.14965464      1.39406358     -0.21581462
H      -3.25748902     -1.24652776      0.39634494
H      -4.03982516      0.20066963      0.74381826
