18
b3lypvtz=-181917.05956867
C      -1.85471031      1.43531915      0.00273655
C      -1.52936338     -0.03232258      0.00130455
C      -2.72704003     -0.94167749     -0.00140178
C      -0.28207371     -0.53390825      0.00135882
C       0.97554942      0.18101534      0.00840479
C       2.16676222     -0.44206170      0.00597666
N       3.41213984      0.16456145     -0.07676257
H      -0.97242831      2.07153998      0.00078106
H      -2.45826642      1.69933702     -0.87206403
H      -2.45452623      1.69878963      0.88036146
H      -2.43840542     -1.99279923     -0.00216156
H      -3.36162293     -0.76536911      0.87415298
H      -3.35883883     -0.76348614     -0.87852859
H      -0.18926965     -1.61761160     -0.00298260
H       0.96155609      1.26605843      0.00792069
H       2.20796956     -1.52614960      0.00653089
H       4.17128158     -0.33547970      0.35683389
H       3.43423549      1.15008039      0.13660680
