14
b3lypvtz=-229604.73672811
C       3.17331356     -0.30044432      0.06299365
C       1.95685589      0.24252475      0.01681279
N       0.80264286     -0.53419950     -0.01438513
C      -0.34707618     -0.01606463     -0.05435049
F      -0.57655627      1.32530638     -0.02367576
N      -1.50699984     -0.70735893     -0.17067830
C      -2.81939247     -0.16279619      0.13894392
H       4.05367953      0.32486671      0.08802691
H       3.30505284     -1.37372896      0.07630989
H       1.84540000      1.32362003      0.00383599
H      -1.37780756     -1.70261248     -0.09806910
H      -2.96400454      0.78374292     -0.37577372
H      -3.57217690     -0.86247220     -0.21837745
H      -2.97148693     -0.00304659      1.21082381
