16
b3lypvtz=-204446.6780617685
C      -1.37763672     -1.14907334      0.51803699
N      -0.83398522     -0.31018551     -0.56176172
H      -0.49316512     -0.89096681     -1.31808327
H      -1.93329680      1.48650043     -0.67246008
C       0.17114517      0.63280454     -0.15543695
C       1.54893542      0.25380292      0.08825542
C       2.07762689     -0.96667339     -0.05128888
C      -0.24637396      1.90982223     -0.04430789
O      -1.50460635      2.29358826     -0.32643177
H      -2.11311716     -1.83550595      0.09748891
H      -0.61728126     -1.73002759      1.04994661
H      -1.88606539     -0.51382131      1.24318313
H       2.19996604      1.06745521      0.39571709
H       1.48754394     -1.82159663     -0.35588455
H       3.12666078     -1.14531743      0.13587994
H       0.39364974      2.71919438      0.27834544
