13
b3lypvtz=-190434.5502948
C      -2.62965467     -0.88684678     -0.14052553
C      -1.73062830     -0.00634496      0.26946421
N      -0.48021725      0.14538724     -0.39331353
C       0.15597329      1.45263485     -0.31036558
C       0.68909447      0.31941962      0.49499932
C       1.89340062     -0.37925549      0.12711828
N       2.86962992     -0.92272672     -0.14874043
H      -3.57551432     -0.98862972      0.37215572
H      -2.43625358     -1.52045931     -0.99498224
H      -1.92017164      0.63954660      1.12868677
H       0.68131317      1.76854749     -1.20143340
H      -0.35165115      2.23797447      0.24014095
H       0.50262344      0.34934270      1.56307147
