18
b3lypvtz=-205214.88013585
C      -1.20745033      1.09411716     -0.48422973
C      -0.47479920     -0.13151043      0.08104284
N      -1.37402678     -1.24851221      0.40333136
C       0.34628093      0.26427849      1.32421995
O       1.55531389      0.80584139      0.81769597
C       1.95284461     -0.05445344     -0.25173176
C       0.65163173     -0.59898505     -0.88030923
H      -1.69193530      0.85215620     -1.43300033
H      -1.97764196      1.43746139      0.21084778
H      -0.51576331      1.92093751     -0.65730892
H      -1.85830766     -1.55647071     -0.43346059
H      -2.09848141     -0.93881301      1.04389245
H      -0.12939350      1.02638217      1.94231318
H       0.53312307     -0.62985885      1.93292740
H       2.56893536     -0.87269446      0.13919046
H       2.55998406      0.53347248     -0.93881531
H       0.49641381     -0.21651350     -1.88893501
H       0.66357199     -1.68693512     -0.92747053
