20
b3lypvtz=-182667.79629707
C       2.00719186      0.60790398      0.60752032
C       1.05306790     -0.11935774     -0.00176941
C       1.29306443     -1.58002267     -0.29407909
N      -0.15143260      0.41370919     -0.45508606
C      -0.38449419      1.82869222     -0.24989829
C      -1.35060859     -0.41631759     -0.52862573
C      -2.05735786     -0.65373810      0.81049816
H       1.88783335      1.64889598      0.86208986
H       2.95458397      0.15183282      0.85027042
H       0.62167855     -2.23194258      0.26912871
H       1.15190221     -1.80175449     -1.35441328
H       2.31229288     -1.84397838     -0.02280590
H      -0.48513557      2.10752573      0.80794440
H       0.44282314      2.40467659     -0.66659139
H      -1.29829330      2.11814995     -0.76793099
H      -1.09188167     -1.37240436     -0.97983133
H      -2.04008611      0.07039547     -1.22226315
H      -2.37961989      0.28502266      1.26330177
H      -1.39884428     -1.15791255      1.51946656
H      -2.94310724     -1.27637812      0.66809044
