18
b3lypvtz=-205200.34598732
C      -2.57999428     -0.96897862      0.00299817
C      -1.26758596     -0.88797352     -0.16630881
C      -0.48699934      0.38479475     -0.29676573
O      -1.35261462      1.49625922     -0.09031745
C       0.68781552      0.43378211      0.70270228
N       1.70024317     -0.57759808      0.43216207
C       2.70571634     -0.19267149     -0.54883100
H      -3.07058861     -1.92876046      0.09772935
H      -3.19798373     -0.08336250      0.05233542
H      -0.65611638     -1.78155315     -0.21135883
H      -0.07182619      0.42205469     -1.31469244
H      -0.86264894      2.30219229     -0.27716239
H       1.10745811      1.45488785      0.68008300
H       0.28038257      0.27639837      1.70237449
H       2.14781621     -0.85823068      1.29251303
H       2.25390227     -0.09367748     -1.53699502
H       3.20821991      0.75966592     -0.31600618
H       3.46431295     -0.97229221     -0.61796096
