11
b3lypvtz=-213006.0812187
C      -1.59519165      0.38005073      0.17241257
C      -1.15703520     -0.87798180      0.05285155
O       0.16058619     -1.17453069     -0.08856887
C       1.09286017     -0.14096734     -0.11063784
N       2.33091625     -0.35601621     -0.23905164
C       0.52910792      1.20426554      0.02569154
N      -0.72052756      1.46136624      0.15826062
H      -2.64659178      0.59644500      0.28418103
H      -1.77869536     -1.76068088      0.05558468
H       2.53865906     -1.34972278     -0.32023970
H       1.24591196      2.01777216      0.00951605
