15
b3lypvtz=-216911.94043247
C      -1.51628136      1.61776897      0.14440719
C      -0.81130972      0.40013917     -0.41933209
C      -1.47000507     -0.98642150     -0.27562587
O      -0.27898140     -1.53723575      0.33931040
C       0.33271821     -0.23632076      0.42205431
C       1.70576105     -0.18446327     -0.19865808
O       2.47105272      0.73115929     -0.03945436
H      -2.39508879      1.86975220     -0.45279561
H      -1.84449821      1.44292625      1.17083379
H      -0.85529171      2.48592173      0.14493225
H      -0.49238982      0.58882530     -1.44538084
H      -1.73011641     -1.51097848     -1.19640381
H      -2.32120577     -1.01123875      0.41119338
H       0.38296534      0.13920158      1.44918004
H       1.94643595     -1.05049799     -0.85022370
