14
b3lypvtz=-208687.07390261
C       2.69949742      0.10583389     -0.10302256
C       1.81554766     -0.88631735      0.05688578
C       0.36595110     -0.81256486      0.11662824
C      -0.42923514      0.26491900      0.05384822
F       0.12521327      1.50131460     -0.04450500
C      -1.88168162      0.33169318      0.10715036
C      -2.73392324     -0.66038753     -0.15045660
H       3.75848944     -0.11286235     -0.12452499
H       2.40604258      1.13804828     -0.21517926
H       2.20794851     -1.89264005      0.16040511
H      -0.15418272     -1.75347300      0.23883147
H      -2.26536891      1.31003326      0.37552555
H      -3.80013210     -0.51103696     -0.05664188
H      -2.40288127     -1.64189512     -0.46335644
