16
b3lypvtz=-232740.08238645
C       2.01393148     -0.48405722      0.32402921
O       0.80799736     -0.17268782      1.01009058
C      -0.31467760      0.03442859      0.19252603
C      -0.37088749      1.26829843     -0.66097963
C      -1.20333844      1.15980097      0.60123512
C      -0.92088093     -1.26877623     -0.28122553
F      -2.05308656     -1.03196799     -1.05964735
H       2.25523504      0.27437781     -0.42645043
H       1.97331021     -1.46171579     -0.16589950
H       2.80036211     -0.50484328      1.07587509
H      -0.88107618      1.21050546     -1.61199263
H       0.48659579      1.92608834     -0.63495459
H      -0.88370566      1.73140054      1.46067219
H      -2.27082570      1.02995696      0.49412941
H      -0.21827456     -1.83702129     -0.89459980
H      -1.22067888     -1.87378746      0.57719183
