13
b3lypvtz=-190467.86607172
C      -2.68618362      0.33127242     -0.00000070
C      -1.64276508     -0.49809699      0.00002751
C      -0.24459448     -0.11231789      0.00000865
C       0.41364893      1.10945867     -0.00003225
C       1.78020792      0.78994803      0.00005319
N       1.98297823     -0.52558610     -0.00011550
N       0.74802848     -1.04652174      0.00002136
H       0.63869313     -2.04609975     -0.00000834
H      -2.56541377      1.40663568     -0.00005861
H      -3.69811393     -0.04777763      0.00004560
H      -1.82990190     -1.56816308      0.00007629
H      -0.03416457      2.08724998     -0.00010988
H       2.62515164      1.45902140      0.00018570
