14
b3lypvtz=-203639.64272077
C      -2.51006151     -1.43799002      0.09335630
C      -1.66860998     -0.61029513     -0.12112224
C      -0.64189484      0.40746500     -0.35723747
C      -1.08327568      1.78413549      0.18446631
C       0.66610123     -0.02054390      0.25976590
N       1.69874933     -0.10605575     -0.46770753
O       2.82595026     -0.48909803      0.27623578
H      -3.25336037     -2.17383104      0.27374596
H      -0.47401298      0.49086725     -1.43363377
H      -1.22272494      1.74861728      1.26517444
H      -2.02734903      2.08303033     -0.26957134
H      -0.32738883      2.53449203     -0.04615128
H       0.70043453     -0.23805299      1.32661461
H       3.51771482     -0.52730651     -0.39197167
