20
b3lypvtz=-182657.92601231
C      -2.38444750     -0.20766247     -0.41027428
C      -1.14699639      0.14454337      0.39955615
C      -0.22423396     -1.05141787      0.74517031
N       0.65387613     -0.66127900     -0.36457480
C       2.07784067     -0.87186017     -0.27102774
C       0.05290442      0.69573259     -0.42481233
C       0.81857048      1.82931030      0.24994295
H      -2.87562966      0.69084982     -0.79103792
H      -2.12165206     -0.83566325     -1.26351126
H      -3.11212678     -0.75106361      0.19673130
H      -1.41424010      0.76816468      1.25318499
H      -0.65306792     -2.05412490      0.65863211
H       0.24285303     -0.95810865      1.73668948
H       2.57512005     -0.46537250     -1.15412341
H       2.28199357     -1.94454694     -0.24586961
H       2.54421962     -0.42294526      0.62151695
H      -0.19382152      0.99015867     -1.45095869
H       1.75576680      2.04526003     -0.26674562
H       1.05177903      1.60263672      1.29219097
H       0.21617908      2.74031742      0.23345145
