13
b3lypvtz=-211388.19749421
C      -2.46914849     -0.49945832      0.00666117
C      -1.04695897     -0.05961402      0.00169094
N      -0.69800421      1.20945644      0.00352817
N       0.67246214      1.13366188      0.00166171
H       1.22453997      1.96973739     -0.06716202
C       1.05853544     -0.15872109     -0.00206414
N       2.37284606     -0.57215480     -0.07313508
N       0.00152155     -0.94351260      0.00388397
H      -3.12867575      0.36556280      0.00762337
H      -2.68008741     -1.10942512      0.88651263
H      -2.68399037     -1.11087169     -0.87123649
H       3.02965982     -0.03365011      0.47067701
H       2.46197422     -1.56232577      0.09731174
