12
b3lypvtz=-200528.82626972
N       2.66299212     -0.82804739     -0.51943629
C       1.89792614     -0.12411301     -0.02765089
C       0.91470815      0.76565871      0.58408106
C      -0.50484009      0.52809349      0.07060106
N      -1.23564393      1.40909684     -0.46722777
C      -1.06389028     -0.85424071      0.27166886
N      -2.23285560     -1.21112614     -0.04687204
H       1.20938073      1.80025178      0.40446983
H       0.93482966      0.60264490      1.66631187
H      -0.76958720      2.31010944     -0.55930305
H      -0.39802716     -1.58585652      0.73008675
H      -2.72763554     -0.41821838     -0.46928839
