13
b3lypvtz=-211347.30044276125
C       0.39738496     -0.03187292      0.81887295
C       1.33577946     -0.61801750     -0.20215884
N       2.37569013      0.03765226     -0.60857015
N       3.27928981      0.62569513     -0.96433880
C      -1.05633953      0.04515790      0.37124965
N      -1.95645927     -0.37238694      1.17102478
N      -1.24749967      0.65082834     -0.85422590
H       0.40199996     -0.61247407      1.74107933
H       0.73062588      0.97867522      1.06803549
H       1.26516003     -1.63764574     -0.54956831
H      -2.89385787     -0.23952867      0.78987074
H      -0.47646029      0.61806569     -1.50200700
H      -2.15531360      0.55585131     -1.27926393
