14
b3lypvtz=-226955.48501491
C      -3.39969841      0.13401398      0.00000584
C      -2.11636928      0.46604226     -0.00000842
O      -1.13288668     -0.48235367     -0.00005270
N       0.15019748      0.11369619     -0.00003716
C       1.04071455     -0.79424272     -0.00003532
O       2.34648311     -0.52048273     -0.00000213
C       2.71792668      0.86575272      0.00000313
H      -3.72406231     -0.89676055     -0.00002674
H      -4.14732752      0.91156518      0.00004925
H      -1.74789295      1.48262768      0.00001083
H       0.82587127     -1.85757953     -0.00000540
H       2.32836182      1.36452465     -0.88743652
H       2.32826823      1.36454334      0.88739101
H       3.80365700      0.87683919      0.00005935
