17
b3lypvtz=-194360.72161374
O      -0.70492333      1.97670202      0.80935795
C      -0.59111682      0.57518805      0.90084330
C      -1.71550973     -0.32705402      0.32741014
C      -0.62336556     -1.28878659     -0.22147196
C       0.40281425     -0.17226643     -0.00192443
C       1.89101109     -0.23822860      0.08176563
C       1.22831861      0.48153977     -1.07001213
H      -0.88143697      2.20376752     -0.11002751
H      -0.40686345      0.36785795      1.95624048
H      -2.24623787      0.18243014     -0.47882590
H      -2.44484556     -0.72821875      1.02935298
H      -0.45565095     -2.14528749      0.43311710
H      -0.75239170     -1.64853776     -1.24183014
H       2.37123370     -1.18716726     -0.11978244
H       2.38475489      0.36582394      0.83231170
H       1.28734088      1.56267674     -1.07789719
H       1.25676851      0.01946077     -2.04842757
