16
b3lypvtz=-181116.95045762
C       2.60579041     -0.15554476     -0.06117620
C       1.37337184      0.69172378     -0.16581711
C       0.13835665      0.25599823      0.05536660
C      -1.22945114      0.85898702      0.04606881
C      -2.12526725      0.04409209     -0.87449859
C      -1.73854950     -0.51836490      0.45476913
N      -0.35936720     -1.02320588      0.48174700
H       2.38323204     -1.12547722      0.38554184
H       3.36578414      0.32722208      0.55876211
H       3.06462783     -0.33482912     -1.03868157
H       1.49251540      1.73627471     -0.42924057
H      -1.51533585      1.83137630      0.41574867
H      -1.71959127     -0.37713007     -1.78714728
H      -3.14220324      0.40863895     -0.95202570
H      -2.44182442     -0.78844594      1.22919211
H      -0.15208846     -1.83131528     -0.09566300
