19
b3lypvtz=-216046.10462997
C      -0.64750419      1.68185461     -0.38744690
C      -0.00434595      0.35444365      0.00649324
O      -0.02315115      0.20324316      1.44192158
C      -0.80049953     -0.85237999     -0.52795745
N      -2.17516572     -1.00029287     -0.06492484
C       1.46287160      0.31685478     -0.48429841
N       2.27300401     -0.81900939     -0.06247109
H      -0.08601953      2.52233987      0.02936731
H      -1.67005907      1.74526630     -0.01550059
H      -0.66521742      1.80579480     -1.47211116
H       0.27811076      1.02537828      1.84224763
H      -0.26029509     -1.75727722     -0.24408280
H      -0.80201715     -0.81271617     -1.62009824
H      -2.19674081     -0.94858667      0.94693876
H      -2.76207553     -0.25228253     -0.41257638
H       1.95185429      1.23061568     -0.12803662
H       1.47956357      0.37035974     -1.57602634
H       2.00167373     -1.66426561     -0.54792238
H       2.13006016     -0.98814243      0.92693667
