15
b3lypvtz=-214519.52206556
C      -3.45626051     -0.30186389      0.14488054
O      -2.30074926      0.47317459     -0.13045693
C      -1.12545167     -0.21564538     -0.10711026
C       0.05177417      0.40874061     -0.00776834
N       1.24247551     -0.30238331     -0.05033025
C       2.34185573      0.33386497      0.04114346
N       3.55812597     -0.29981680      0.09263112
H      -3.53993697     -1.14729638     -0.54587399
H      -4.31445809      0.35293781      0.01195529
H      -3.44685425     -0.67994434      1.17185233
H      -1.18420102     -1.29491594     -0.20449489
H       0.07049775      1.49449695      0.09916839
H       2.40246123      1.42384174      0.13302029
H       3.55322472     -1.27405953     -0.16692540
H       4.36717467      0.22114291     -0.19902036
