21
b3lypvtz=-193505.48408857
C      -3.03730411     -0.70016076      0.15026791
C      -1.87240369      0.16836456     -0.32472348
C      -0.51881217     -0.29709693      0.21473967
C       0.68572587      0.52038672     -0.27926980
N       0.66501883      1.94363607      0.08671889
C       2.01465574     -0.06302078      0.21348012
N       2.21282930     -1.44860605     -0.22496810
H      -3.98915623     -0.34454547     -0.24790518
H      -2.91108824     -1.73726737     -0.16817362
H      -3.11235721     -0.69772334      1.24018962
H      -2.05404142      1.20437327     -0.02507090
H      -1.84044374      0.16631419     -1.41910379
H      -0.37323520     -1.34224744     -0.07419598
H      -0.53568857     -0.27193819      1.31251397
H       0.70326150      0.47347578     -1.37223304
H       0.53848691      2.05036572      1.08822523
H      -0.11007060      2.42039871     -0.35592255
H       2.06605191      0.06027610      1.30707366
H       2.81325803      0.54836346     -0.20601676
H       1.73374763     -2.09822602      0.38598372
H       3.19439645     -1.69148424     -0.18744959
