12
b3lypvtz=-200532.7052258
C      -0.76789378      1.72813769      0.00000093
C      -0.64002752      0.39433912      0.00000668
C      -1.82023703     -0.42521867     -0.00000863
N      -2.74837881     -1.10756439     -0.00001877
N       0.54015833     -0.35505119      0.00002967
C       1.83159268      0.14234163     -0.00002398
N       2.91201584     -0.52072676     -0.00001658
H       0.07731560      2.39738273      0.00001875
H      -1.75361157      2.16337483     -0.00002214
H       0.43577585     -1.35749909      0.00004440
H       1.88523973      1.22652747     -0.00007129
H       2.75339371     -1.52979037      0.00003496
