16
b3lypvtz=-204467.21391799
C       2.01072444     -0.65322322     -0.36212754
C       0.69751810      0.02872852      0.02896619
C       0.64190074      1.46291727     -0.48611113
O       0.59485423      0.12785121      1.44993344
C      -0.48603233     -0.81268547     -0.52524547
C      -1.80122000     -0.27998216     -0.18708390
N      -2.84323183      0.13718323      0.06389204
H       2.05840794     -1.66979055      0.03729422
H       2.85079150     -0.08944422      0.04201267
H       2.12490159     -0.71385280     -1.44560420
H       0.70653177      1.48942850     -1.57438985
H       1.47471169      2.03122821     -0.07354518
H      -0.28577149      1.94347284     -0.17803927
H       0.71933082     -0.74398873      1.84020186
H      -0.41856158     -1.83169868     -0.13480183
H      -0.41331659     -0.88589494     -1.61273505
