17
b3lypvtz=-215283.65383709
N      -2.86809681      0.10619974      0.21576188
C      -1.69894610     -0.64357137     -0.00381340
C      -0.50120190     -0.08279179     -0.21787118
N      -0.38387382      1.33302365     -0.16482363
C       0.72762423     -0.89999228     -0.50006138
C       1.91640246     -0.62878228      0.42923199
O       2.51518946      0.65730528      0.21946549
H      -3.56938306     -0.39396070      0.74165945
H      -2.66091197      0.99280651      0.66171077
H      -1.82893333     -1.71422927     -0.07606002
H      -0.95680121      1.80846967     -0.85123437
H       0.57368967      1.64807923     -0.21482448
H       0.47215566     -1.95979384     -0.42223375
H       1.07105838     -0.73517880     -1.53235404
H       1.59180943     -0.63331911      1.46983247
H       2.66900418     -1.41555230      0.30855872
H       2.98051275      0.63667966     -0.62257251
