18
b3lypvtz=-181915.86911418
C      -0.40014623      1.59946102      0.10380849
C       0.91759206      1.36786019      0.03869065
N       1.59298134      0.18235000     -0.23333579
C       1.12776665     -1.11381563      0.24664309
C      -0.22910495     -1.55177115     -0.29901454
C      -1.41461485     -0.78641619      0.28874638
C      -1.54133632      0.66327280     -0.18938863
H      -0.67591599      2.62834303      0.29881193
H       1.58425204      2.21423501      0.16559167
H       2.58922369      0.28205225     -0.12996718
H       1.07549070     -1.12917306      1.34651584
H       1.88363542     -1.84280565     -0.05072348
H      -0.34355691     -2.61384125     -0.06485750
H      -0.22521704     -1.46659501     -1.39006704
H      -2.33752526     -1.31109454      0.02702362
H      -1.34460544     -0.80573498      1.38124175
H      -1.70990075      0.64374815     -1.27572056
H      -2.45431716      1.08676402      0.23653030
