15
b3lypvtz=-214523.28307497
C       2.83033129     -0.45057695     -0.06833507
C       1.49492799      0.10276367      0.29827266
N       0.51316171      0.10538430     -0.50249689
C      -0.71264977      0.68146849     -0.12284763
N      -0.92484077      1.91030227      0.11773179
C      -1.86968204     -0.29697477     -0.14863868
O      -1.54545701     -1.56866343      0.39068544
H       3.10329119     -1.26160563      0.61210405
H       2.83035725     -0.81872568     -1.09195261
H       3.59878603      0.31945645      0.04220329
H       1.39402303      0.51697338      1.30871820
H      -0.06815776      2.45714361      0.02520976
H      -2.22349832     -0.38061088     -1.18403315
H      -2.67630540      0.11599108      0.45131877
H      -0.88000044     -1.97130191     -0.17684892
