15
b3lypvtz=-216937.51906777
C       2.07481975      0.14000041      0.16741395
C       0.67789104      0.25679682     -0.40759064
C      -0.14354687     -1.03443394     -0.33366219
O       0.23317204     -2.12984374     -0.65667901
C      -1.51190468     -0.65275636      0.21935092
C      -1.47352959      0.87321288      0.16848573
O      -0.09002903      1.22003641      0.30621785
H       2.02969511     -0.10494538      1.22875650
H       2.61567325      1.07839898      0.05081602
H       2.61754137     -0.64963827     -0.35181932
H       0.73333851      0.53418945     -1.47336181
H      -2.31094556     -1.11926402     -0.35419902
H      -1.57461799     -1.01768644      1.24761641
H      -2.01403858      1.36140650      0.97617018
H      -1.86351878      1.24452669     -0.78751557
