10
b3lypvtz=-199797.0582491
C       0.07425245      1.25744980      0.01298898
C       0.62201194     -0.00736315     -0.01681311
N      -0.46180691     -0.86706782      0.00201265
C      -1.57617512     -0.09745977      0.04108336
N      -1.28568424      1.18544481      0.04852439
C       1.95789959     -0.45372555     -0.05790391
N       3.05113752     -0.82264557     -0.09153837
H       0.60150313      2.19626774      0.01012995
H      -0.41532008     -1.87236401     -0.01120608
H      -2.56781829     -0.51853650      0.06272213
