19
b3lypvtz=-171800.23087189
C      -1.50061272      1.23051358     -0.00000125
C      -0.58931351      0.00000750      0.00000018
C      -1.50061688     -1.23048884      0.00000226
C       0.67814704     -0.00001705     -0.93865030
C       1.32408865     -1.05965111     -0.00000013
C       0.67814744     -0.00001643      0.93865013
C       1.32413703      1.05959397     -0.00000024
H      -2.15097027      1.21395438     -0.87809669
H      -0.97801814      2.18290594     -0.00002947
H      -2.15093358      1.21398478      0.87812202
H      -2.15093854     -1.21393732     -0.87812070
H      -0.97802729     -2.18288536      0.00002788
H      -2.15097090     -1.21390920      0.87810066
H       0.68352222     -0.00001388     -2.02918198
H       0.92342366     -2.06779684     -0.00000046
H       2.41349237     -1.08163037     -0.00000024
H       0.68352289     -0.00001280      2.02918181
H       0.92350470      2.06774941      0.00000022
H       2.41353983      1.08155066     -0.00000072
