17
b3lypvtz=-215310.43380163
C      -0.44034664      1.64078953      0.41516767
C      -0.18659746      0.30345095     -0.29445913
C      -1.22688669     -0.75920533      0.09538468
N      -2.57261679     -0.35088230     -0.31954911
C       1.20890438     -0.20442201      0.05830569
N       2.14893785     -0.09047248     -0.92500452
O       1.47168575     -0.68036227      1.14820509
H       0.24425702      2.41497767      0.06461094
H      -1.46268953      1.96502957      0.23040711
H      -0.29946058      1.52401864      1.49031373
H      -0.24881569      0.46034804     -1.37707194
H      -0.91884256     -1.72835440     -0.31770526
H      -1.21394610     -0.86510775      1.17993199
H      -2.70138840     -0.49802223     -1.31380664
H      -3.27277450     -0.91175494      0.14919402
H       1.96159099      0.39935207     -1.78059832
H       3.10311395     -0.31373075     -0.69555600
