11
b3lypvtz=-212974.69311952
C       1.91776006     -0.82569172     -0.00000393
C       0.63579229     -0.47361379     -0.00005426
O      -0.38188497     -1.40082272     -0.00003819
N      -1.62805817     -0.72922757     -0.00023928
C      -1.41493016      0.53105822     -0.00014564
C       0.01067630      0.86970792     -0.00017907
N       0.48613713      2.04942787     -0.00009412
H       2.68586986     -0.06607648      0.00000267
H       2.21922468     -1.86234330      0.00004070
H      -2.24108419      1.22500442      0.00001150
H       1.50691417      2.04271615     -0.00001937
