15
b3lypvtz=-193555.45953921
C       0.01547027      0.06146113     -0.89555547
C       0.56025805      1.44190417     -1.04099022
C      -0.04890073      2.72130113     -1.70968976
C       0.72403834      2.48471130     -3.02195151
C       1.71279110      2.00134743     -1.94304293
C       1.24788639      3.09094649     -0.93711075
O       1.01235354      2.15887108      0.16070011
H      -0.27546117     -0.33700341     -1.86903568
H      -0.86134549      0.06476940     -0.24651165
H       0.76618416     -0.59995453     -0.46075536
H      -1.04410100      3.12808587     -1.54202200
H       1.01378510      3.37450297     -3.58161267
H       0.32486590      1.72713841     -3.69713346
H       2.71609485      1.59161526     -2.04030942
H       1.67538069      4.06580330     -0.71777922
