17
b3lypvtz=-215282.06999063
C       0.30692975      1.96865550      0.11645600
C      -0.38450897      0.71765155     -0.41615911
C      -1.34691988      0.05413309      0.58212219
N      -2.09724380     -1.09306978      0.08921642
O       0.54070003     -0.23089921     -1.01075537
C       1.52169023     -0.85714227     -0.31937028
N       1.86820828     -0.82637643      0.89358154
H       1.02206651      2.34566721     -0.61435506
H      -0.44044116      2.74485834      0.28846688
H       0.83560634      1.80439926      1.05427961
H      -0.97533862      1.00690034     -1.28775520
H      -0.81589909     -0.25460920      1.48361989
H      -2.05770965      0.82302104      0.89705690
H      -1.46686191     -1.83160442     -0.19904286
H      -2.64527546     -0.84228886     -0.72579700
H       2.06773762     -1.49009585     -1.01593950
H       1.30207578     -0.20872331      1.46544797
