13
b3lypvtz=-237069.24321371
N      -1.25563034      0.10958454     -1.30779996
C      -1.03198494     -0.06827157      0.11591855
C       0.46119813      0.02036935      0.43562234
O       0.88699953      1.31286148      0.05690941
O       0.58489211     -0.20643297      1.81788926
C       1.25718077     -0.99332498     -0.30675818
N       1.94146402     -1.76378049     -0.81806693
H      -2.19916550     -0.14790964     -1.56202017
H      -1.10808762      1.07352012     -1.57686829
H      -1.51068385      0.67293760      0.76764473
H      -1.37963452     -1.05463272      0.41887710
H       1.83756564      1.32131648     -0.09918696
H       1.51568657     -0.27623719      2.05793912
