12
b3lypvtz=-223826.70119804
C      -0.59368171      1.67222336     -0.00019583
C      -0.29013239      0.37598626     -0.00002174
N      -1.25021979     -0.69313700     -0.00030532
N      -2.44172439     -0.34972131      0.00059112
C       1.15118999     -0.06629564      0.00018361
N       1.33031033     -1.41054854     -0.00009391
O       2.06770238      0.73637193      0.00049649
H       0.20671881      2.39744863     -0.00007204
H      -1.62288324      2.00051773     -0.00045721
H      -2.99919219     -1.21370592      0.00004801
H       2.26886527     -1.76924603      0.00000357
H       0.53745894     -2.02827949     -0.00041475
