14
b3lypvtz=-252935.42112106
C      -1.03225485     -0.33756039     -0.30691298
C      -1.89542315     -0.25021266      0.92817958
F      -1.56637337     -1.29694414      1.80179787
N       0.37270150     -0.19300428      0.01991502
C       1.22063606      0.52035329     -0.79584530
O       0.84138281      1.17777115     -1.74866455
N       2.56018522      0.41110398     -0.45229955
H      -1.22677222     -1.28699717     -0.81733759
H      -1.28902542      0.46586881     -0.99653970
H      -1.72787689      0.68464693      1.46493352
H      -2.95241043     -0.35150813      0.67594651
H       0.76812007     -0.89699354      0.62063391
H       3.13786311      1.09693925     -0.91033866
H       2.78924754      0.25653689      0.51653191
