16
b3lypvtz=-204433.93210816
C       2.31031208     -0.11404848     -0.10891205
O       1.17875890      0.02145417      0.73542505
C      -0.07028027     -0.12191067      0.05844908
C      -1.12037766     -0.34490360      1.10822639
C      -2.05472348     -1.28295468      1.04486761
N      -0.57381568      1.08767410     -1.98542394
C      -0.36760557      1.13189091     -0.73790398
H       2.33632849     -1.10307783     -0.58020128
H       3.18839150      0.00219793      0.52346873
H       2.33447125      0.64536301     -0.89686046
H      -0.04209394     -0.96485587     -0.64022142
H      -1.07871160      0.33618773      1.95215911
H      -2.11009488     -1.97570969      0.21386688
H      -2.80086539     -1.39004329      1.82099666
H      -0.75908384      2.01767640     -2.36220175
H      -0.37070991      2.05515985     -0.14583463
