16
b3lypvtz=-202026.98522148
C      -1.62205202      1.13074715      0.16935218
C      -0.94667282     -0.06318822      0.86086588
C      -0.10618942     -0.90593967     -0.06556023
C      -0.49082634     -2.10181159     -0.52288043
N       1.15893984     -0.45702188     -0.51306012
N       1.53626803      0.62445053     -0.01509544
N       2.71558901      1.05010295     -0.50708848
H      -2.27736430      0.79480751     -0.63556883
H      -0.88452520      1.81063628     -0.25425004
H      -2.22650283      1.69202216      0.88395950
H      -1.70982220     -0.70582791      1.30206622
H      -0.32208282      0.30427184      1.67730068
H       0.14199983     -2.65545423     -1.20193588
H      -1.43431901     -2.53865427     -0.22893361
H       3.27525666      0.34234962     -0.97373086
H       3.19230360      1.67850970      0.11770354
