14
b3lypvtz=-224629.96056981
C       2.59079561     -0.22801425      0.00013857
N       1.18928470     -0.56477278     -0.00028456
C       0.19733564      0.35219326      0.00010365
N       0.26348056      1.63264416      0.00027382
C      -1.18235577     -0.30939109      0.00019581
N      -2.19593594      0.57146989     -0.00011431
O      -1.29831651     -1.52600961      0.00020025
H       2.86513665      0.35326772      0.88607812
H       2.86538798      0.35407332     -0.88518095
H       3.17707559     -1.14380461     -0.00022872
H       0.88132535     -1.52519063      0.00014035
H       1.21908575      1.98037493      0.00013586
H      -3.14469931      0.24315297     -0.00033674
H      -1.96812829      1.55338771     -0.00026315
