15
b3lypvtz=-214479.34616682
C      -1.11904027     -0.28869753      1.01349520
C       0.05068431      0.35857667      0.28380477
C      -0.42086096     -0.40423038     -0.97711689
C       0.89466226     -0.72248911     -0.34538804
O       2.00027311     -0.25840805     -1.08211886
N      -1.45786488     -1.11638797     -0.20196322
N       0.58236860      1.63477733      0.60592965
H      -1.89925865      0.43544915      1.25867365
H      -0.88616934     -0.87813578      1.90366247
H      -0.51544418     -0.15242736     -2.02495794
H       1.02948527     -1.69049172      0.13621301
H       2.76237011     -0.23010785     -0.49479009
H      -2.38083007     -0.87276329     -0.53931789
H      -0.06901548      2.37945501      0.38780004
H       1.42864014      1.80588087      0.07607413
