13
b3lypvtz=-237043.04730989
N      -0.65506387      1.48997385      0.23426090
C      -0.79805722      0.19218595     -0.24028656
C       0.39128896     -0.58474382     -0.58052513
C       1.66699988     -0.30748054     -0.30342759
O       2.08524810      0.79794293      0.38276265
N      -2.00579198     -0.22893447     -0.40664744
O      -2.05131838     -1.52102159     -0.99543703
H      -1.50495951      1.86214771      0.62988108
H       0.16868955      1.66158903      0.78629761
H       0.20473965     -1.50944176     -1.10175579
H       2.45408218     -0.98366358     -0.61608452
H       3.04229228      0.79209411      0.46150390
H      -2.99814963     -1.66054783     -1.07694210
