18
b3lypvtz=-205245.50871012
C      -2.62265334     -0.59184562      0.03169267
C      -1.16884350     -0.62964166      0.50138362
C      -0.18626912      0.13742692     -0.40742455
C      -0.46304344      1.64458053     -0.45538587
C       1.23318050     -0.09696068      0.10982776
N       2.04072813     -0.84826075     -0.69220833
O       1.61551401      0.34047160      1.18006131
H      -3.03057184      0.41929283      0.04087829
H      -2.72393510     -0.98290657     -0.98374594
H      -3.25096222     -1.20152632      0.68280650
H      -1.08548440     -0.22338935      1.51145861
H      -0.84304178     -1.67186291      0.56296332
H      -0.27039562     -0.26991549     -1.42085953
H      -0.36377850      2.07442826      0.54113198
H      -1.46583557      1.85001523     -0.82856130
H       0.24602884      2.15274317     -1.11112454
H       2.98527378     -1.02288699     -0.39292680
H       1.74609718     -1.17550519     -1.59329820
