15
b3lypvtz=-191240.17030701
C      -0.92998341     -1.74887070     -0.00184882
C      -0.84041013     -0.25260797      0.00383778
N      -2.05082081      0.39474527     -0.04486620
C       0.32912973      0.43981365      0.00443811
C       0.36623859      1.95239262     -0.00383027
C       1.56575442     -0.25097421      0.00000879
N       2.59454655     -0.78041814      0.00031054
H      -1.46503321     -2.09147199     -0.89065949
H       0.05384719     -2.20782894      0.00876547
H      -1.48457854     -2.10083636      0.87234580
H      -2.08596841      1.37690678      0.16741065
H      -2.87040603     -0.12376772      0.21893902
H      -0.12322579      2.36161953     -0.89252290
H       1.39122310      2.31493273      0.00227942
H      -0.13205325      2.37384344      0.87568211
