12
b3lypvtz=-226217.98706723
N       2.96129654     -0.94637153      0.65043012
C       1.87325413     -0.88711981      0.28030914
C       0.50491520     -0.74898305     -0.20507706
O      -0.48093025     -1.31314939      0.68194707
C      -1.29565561     -0.11169404      0.60645080
C      -0.16918605      0.65497641     -0.09382952
O      -0.55385312      1.28601900     -1.28151184
H       0.42827886     -1.15643003     -1.21768564
H      -1.60281382      0.23213758      1.59317204
H      -2.16617006     -0.25138543     -0.03803813
H       0.38143866      1.32197006      0.57030364
H       0.11932553      1.92013022     -1.54637063
