17
b3lypvtz=-194376.8722957
C      -3.57513540      0.14110981      0.09979199
C      -2.08879271      0.26192030      0.21391802
C      -1.21049921     -0.64085682     -0.22884235
C       0.24799597     -0.54099651     -0.15649607
C       0.96453359      0.58274916     -0.22018381
C       2.45856824      0.66345299     -0.10632410
O       3.10125965     -0.55115441      0.24363948
H      -3.99409962      0.96854771     -0.48094203
H      -4.05351826      0.18036613      1.08279059
H      -3.86650436     -0.79150354     -0.38437461
H      -1.71632836      1.15492326      0.70848264
H      -1.59584348     -1.55830810     -0.66728001
H       0.78657310     -1.48042917     -0.07646435
H       0.46494808      1.53487651     -0.37674408
H       2.88915650      0.95690984     -1.06863238
H       2.72093024      1.46458684      0.59981619
H       2.77280504     -0.82617199      1.10605190
