12
b3lypvtz=-223805.9850709
C       0.66623575     -0.06875521     -0.26474797
N       1.48009495     -0.20989186      0.69619711
O       2.71764998     -0.68968306      0.26598001
C      -0.74637480      0.36890806      0.04949325
C      -1.08750352      1.56764049     -0.73185237
N      -1.32654839      2.49668154     -1.36571437
N      -1.76461262     -0.66143641     -0.18033963
H       0.93760620     -0.29805446     -1.29425587
H       3.23079527     -0.72875004      1.08020178
H      -0.77482478      0.64388418      1.10579251
H      -1.54283096     -1.48286997      0.36983737
H      -1.78968706     -0.93767327     -1.15542005
