14
b3lypvtz=-224559.7155466
C       1.05652311     -1.18002191     -0.08448840
N       0.26552189      0.02039428      0.18497087
N       0.83491823      1.23770280      0.10794494
N       2.06658565      1.20888675     -0.11377661
C      -1.14457102     -0.01517600      0.14223164
C      -1.90429077      0.81670029     -0.56101378
O      -1.69119653     -1.02972519      0.88223162
H       1.87795412     -1.25565614      0.62599317
H       0.40364924     -2.04322003     -0.00392506
H       1.48764802     -1.12791016     -1.08632298
H       2.36049213      2.18718812     -0.10830254
H      -2.97619719      0.78982111     -0.44503705
H      -1.45922250      1.53128696     -1.23217485
H      -1.17781438     -1.14047089      1.69166905
