12
b3lypvtz=-202930.26719375
C      -1.89729440     -0.68649535     -0.86966269
C      -1.72643895     -0.35066014      0.40173247
C      -0.65638868      0.57695762      0.93413085
C       0.55376700      0.66072304      0.03771715
O       0.83259143      1.59868751     -0.66346958
C       1.43781804     -0.52744429      0.05505080
N       2.14388260     -1.43587486      0.09288398
H      -2.70075724     -1.34709500     -1.16517209
H      -1.25795534     -0.31925138     -1.66313039
H      -2.40213639     -0.74410733      1.15267253
H      -1.04719922      1.58971552      1.05600156
H      -0.33244187      0.22338067      1.91735440
