16
b3lypvtz=-204447.40336232
C       0.80252179      1.55406775     -0.12557830
C       0.50039103      0.25592861     -0.17762381
C       1.53015851     -0.84961661     -0.09955437
O       2.84636690     -0.41557696      0.18192233
N      -0.79068705     -0.24117842     -0.41335860
C      -1.76483373      0.11649975      0.31252262
C      -3.16343029     -0.33823556      0.05600700
H       0.03966566      2.31152750     -0.23832964
H       1.82979985      1.87561197     -0.04114081
H       1.57000878     -1.35719635     -1.06533518
H       1.18834763     -1.59563430      0.63041990
H       2.85476830     -0.02135086      1.05988498
H      -1.60950113      0.78574621      1.16893380
H      -3.81345623      0.52290594     -0.12311719
H      -3.56511848     -0.85510381      0.93181043
H      -3.19958754     -1.00145985     -0.80547016
