14
b3lypvtz=-250290.83409366
C       1.51934148      0.50492099     -1.32553078
O       0.12569168      0.63882395     -1.02328324
C      -0.34781494     -0.26312266     -0.07793820
C      -0.84037470      0.25828708      1.04765036
O      -1.38355287     -0.49595282      2.03779263
O      -0.82866343      1.58975141      1.34327295
N      -0.24325639     -1.63354115     -0.39020119
H       2.13148114      0.73865466     -0.44879870
H       1.74338544     -0.50809913     -1.65943207
H       1.73415914      1.21423367     -2.12243023
H      -1.88969016      0.09250531      2.60982754
H      -0.53641087      2.04311356      0.54004054
H      -0.17955824     -2.20829933      0.43753566
H      -1.00473728     -1.97127556     -0.96850524
