15
b3lypvtz=-240210.93555306
C      -1.20036042      0.93866747     -0.37899189
C      -1.01536913     -0.55350486     -0.56385827
C      -0.01652171      0.25099520      0.23350928
C       1.38344938      0.49681759     -0.25236221
O       2.26613288     -0.53798867      0.19306499
O      -0.09272574      0.05901566      1.62982588
O      -1.83397639     -1.45266635      0.11762520
H      -1.98021197      1.24270870      0.30635587
H      -1.03902796      1.60075879     -1.21998429
H      -0.74586302     -0.91819604     -1.54797345
H       1.39888083      0.59827262     -1.34189606
H       1.77438943      1.41857725      0.18206068
H       2.05151511     -1.34591036     -0.28583620
H       0.68896133     -0.45821462      1.86948698
H      -1.63927266     -1.33933238      1.05897349
