13
b3lypvtz=-216115.75017455453
C      -2.12483772     -0.29090004      0.90132493
O      -1.05565641     -0.55532738      0.00921645
C       0.16049883      0.00558069      0.41842353
C       0.65320198      1.26088590     -0.23106583
C       1.23070183      0.14633387     -0.58670600
C       2.22433374     -0.49997244     -1.44393508
O       2.40316478     -1.69188224     -1.49765374
H      -1.90580625     -0.65828301      1.91060112
H      -2.99738809     -0.81532314      0.51766916
H      -2.34797365      0.78074490      0.95924890
H       0.39442531     -0.20793701      1.46142584
H       0.54178704      2.32306371     -0.36443294
H       2.82354862      0.20301618     -2.05411633
