17
b3lypvtz=-191975.87813331
C       3.31552937      0.06999710     -0.00008623
N       2.20247009     -0.51963220      0.00018219
C       0.98767352      0.30166217      0.00009861
C      -0.24288257     -0.59413393      0.00003420
C      -1.56416564      0.13455250      0.00000473
C      -2.79056155     -0.74715784     -0.00005813
N      -1.58065453      1.40565715      0.00003721
H       4.23036401     -0.51955383     -0.00000964
H       3.43106340      1.16173434     -0.00039616
H       0.97117320      0.95588064      0.87501001
H       0.97126191      0.95592534     -0.87478261
H      -0.20708934     -1.26160651      0.86754984
H      -0.20703575     -1.26157903     -0.86750083
H      -2.79535265     -1.39943131      0.87666566
H      -3.70573915     -0.15563048     -0.00008648
H      -2.79528256     -1.39940752     -0.87679986
H      -2.53822677      1.75892243      0.00001450
