12
b3lypvtz=-223852.49868355
N      -2.82024851     -0.73943689      0.00004878
C      -2.26773972      0.40084511      0.00007340
C      -0.80082666      0.65047194     -0.00008832
N       0.02182894     -0.31681018     -0.00024372
C       1.41871177      0.05758693     -0.00025260
N       2.19086006     -1.05239083      0.00004220
O       1.84081091      1.19422233     -0.00003014
H      -2.09628634     -1.46546344     -0.00010663
H      -2.90112898      1.28770519      0.00022955
H      -0.45194397      1.68582953     -0.00003803
H       3.19041656     -0.95670622      0.00030317
H       1.76475594     -1.96090944      0.00003435
