14
b3lypvtz=-203692.14118619
N       2.18872954     -0.55213323     -0.05295110
C       0.99338528     -0.15494086     -0.04678555
O       0.59300230      1.11229587      0.31430793
C      -0.76804907      1.36024712     -0.09710080
C      -1.36127425      0.00770749     -0.42924075
C      -1.27829439     -1.02899618      0.64366297
C      -0.19873277     -0.95641883     -0.41585218
H       2.82365910      0.20194645      0.20505984
H      -0.75550571      2.01390307     -0.97240875
H      -1.27121401      1.87505313      0.72240934
H      -2.13546122     -0.04853623     -1.18019618
H      -1.95349962     -1.87011565      0.57848654
H      -1.02863515     -0.72224033      1.65126102
H      -0.07254602     -1.76563483     -1.11663333
