10
b3lypvtz=-223036.79629465
C       0.90863405     -0.06109258      0.10363784
C       0.25775414      0.99431841      0.59018071
O       0.85054771      2.14722592      0.97439878
N      -0.25705812      3.04194912      1.45007702
N      -1.32907233      2.48711776      1.35423012
C      -1.19792440      1.15057316      0.81577066
N      -2.21169992      0.42438843      0.64582565
H       0.36284230     -0.94836154     -0.18208601
H       1.98106536     -0.05785583     -0.01613302
H      -1.96058879     -0.48556285      0.26079825
