17
b3lypvtz=-171021.44039747
C       1.16387548      0.19331373     -0.61696367
C       0.36756269     -1.02623515     -0.18818989
C       0.81785510     -2.43259554     -0.63598487
C       1.93238032     -2.52836602      0.46600292
C       1.42487893     -3.89206499      0.96427892
C       0.14757221     -3.11684258      0.60315152
C       0.73064053     -1.75846172      1.12069746
H       0.89239356      1.06830693     -0.02169181
H       0.97245802      0.43839141     -1.66431247
H       2.23821613      0.03574598     -0.50426413
H      -0.70632172     -0.85020355     -0.30893376
H       0.87671355     -2.85045682     -1.64133200
H       2.95863488     -2.17654929      0.38188300
H       1.58110959     -4.11781245      2.02119622
H       1.66474539     -4.76052542      0.34729977
H      -0.89422723     -3.42803776      0.67085847
H       0.68851258     -1.39640676      2.14830430
