16
b3lypvtz=-181136.14737177
C      -2.21233549      0.38374911      0.61690549
C      -1.58752704     -0.98150295      0.30592344
C      -0.42698532     -0.89688632     -0.65838480
N      -0.52825439     -1.43386941     -1.81358254
C       0.74617658     -0.19538226     -0.20702400
C       1.72833655      0.38715647      0.17726239
C       2.91973055      1.08927656      0.62591107
H      -3.04370111      0.27132944      1.31359536
H      -2.59446542      0.85155701     -0.29154675
H      -1.48551773      1.06094196      1.06694076
H      -2.32467655     -1.64836939     -0.14005691
H      -1.23596110     -1.43919792      1.23508313
H       0.32671727     -1.29112953     -2.35190287
H       3.82282029      0.62717871      0.22273177
H       2.99365098      1.08500727      1.71488028
H       2.90199194      2.13014125      0.29570422
