14
b3lypvtz=-231990.50647527
C      -2.79099088      0.19351973      0.12657583
C      -1.38975153      0.55526004      0.50672340
C      -0.32596113     -0.12362790      0.10330720
O       0.93740412      0.27614174      0.49957960
C       2.04623967     -0.37658016      0.11998674
C       3.27406642     -0.03297257      0.47488191
F       1.81350088     -1.43705097     -0.67092885
H      -2.81921429     -0.68775851     -0.51522930
H      -3.28039846      1.01302438     -0.40644435
H      -3.39933354     -0.01517878      1.01064691
H      -1.23995883      1.41827618      1.14574305
H      -0.36663697     -0.99465830     -0.53231359
H       4.11266322     -0.61107815      0.12618855
H       3.42837130      0.82268327      1.11031777
