15
b3lypvtz=-191207.70648716
C       1.97324964     -0.24264829      0.28934394
N       0.69742704      0.22803453     -0.18979657
C       0.16651800      1.47714684      0.01773188
N      -1.07883801      1.63170420     -0.25058621
C      -1.57469045      0.32114357     -0.60015107
C      -1.51498557     -0.75599271      0.45930335
C      -0.39069688     -0.64319374     -0.53979877
H       1.89315702     -0.77113617      1.24685838
H       2.42476945     -0.92252108     -0.43622594
H       2.64571096      0.60515617      0.41843918
H       0.81040172      2.27593587      0.36640613
H      -2.35003370      0.27724046     -1.35124451
H      -1.33805048     -0.45365647      1.48343630
H      -2.18807859     -1.59207568      0.33130281
H      -0.17586013     -1.43523748     -1.24511889
