15
b3lypvtz=-214504.86875298
C      -1.48717579     -1.29346539      0.13158361
C      -0.71784660     -0.08670052     -0.23161394
N      -1.66746546     -0.04335922      0.88904432
C       0.74999035      0.05873392      0.13300038
C       1.03210640      1.52099431      0.46429665
O       1.85336036      2.19352261     -0.10636137
N       1.59923210     -0.51309098     -0.90100941
H      -2.27659609     -1.61518882     -0.53625677
H      -0.99520659     -2.09063514      0.67425947
H      -1.00344804      0.41548622     -1.15170801
H      -2.52712436      0.42038149      0.61768227
H       0.89590249     -0.49984241      1.06450632
H       0.40972435      1.94327848      1.27801140
H       1.56805785      0.07627012     -1.72713819
H       2.56648902     -0.48638469     -0.59829674
