11
b3lypvtz=-236329.15291772
C       2.71187164      0.02757348     -0.00015526
N       1.65059748     -0.66425156     -0.00015740
C       0.42274569      0.10752816     -0.00020496
O       0.33378548      1.30416311     -0.00023007
N      -0.63794061     -0.78843225     -0.00018033
C      -2.00158612     -0.50947179     -0.00008009
O      -2.50735081      0.57635128      0.00018949
H       2.69748865      1.11918337     -0.00021604
H       3.66942846     -0.48515278     -0.00014086
H      -0.36275906     -1.75918017     -0.00020739
H      -2.58280079     -1.44921186      0.00016993
