13
b3lypvtz=-237083.20386878
N      -2.28367651     -0.65435787     -0.64211185
C      -1.21699008     -0.90442740     -0.01871984
C      -0.27224264      0.12030408      0.63536826
N      -0.64854470      1.51414878      0.54366275
C       1.11886248     -0.14550843      0.07589736
O       1.81677701     -1.06289572      0.41788002
O       1.45719460      0.71998833     -0.90285516
H      -2.45025044      0.35596821     -0.68539903
H      -0.90939125     -1.94456906      0.10037127
H      -0.20496119     -0.16027963      1.68988065
H      -0.62521460      1.85649143     -0.40796033
H      -1.56572258      1.68071194      0.93661430
H       2.33022390      0.45328433     -1.22789141
