17
b3lypvtz=-191966.00517535
C      -2.38508107     -0.66914471      0.29972213
C      -1.09957101      0.04673609      0.00533648
C       0.02900898     -0.59486325     -0.34660397
C       1.27931073      0.13114412     -0.67775101
C       2.60645989     -0.38904120     -0.29072884
N       2.07300677      0.79999982      0.39863970
N      -1.18352293      1.43296339      0.06233211
H      -3.17266508     -0.34146572     -0.38370907
H      -2.26546660     -1.74525852      0.19863346
H      -2.72913107     -0.45660509      1.31660840
H       0.00955060     -1.67250648     -0.43609193
H       1.24711893      0.74668829     -1.57341041
H       2.63688073     -1.32449176      0.25592020
H       3.46699327     -0.20336671     -0.92113948
H       1.69216806      0.50271213      1.29278332
H      -0.30745425      1.92764064      0.13487827
H      -1.89760595      1.80885897      0.66458061
