17
b3lypvtz=-191964.31182221
C       2.23407882     -1.34402477      0.04129855
C       1.26335529     -0.56290294     -0.41103554
C       0.67001865      0.59850670      0.34202916
N       0.71714050      1.80031441     -0.49805069
C      -0.75256572      0.26361438      0.86072094
N      -1.67458965      0.06869744     -0.24301246
C      -2.41392134     -0.95171689     -0.24312310
H       2.61669462     -2.17130050     -0.54230074
H       2.68986452     -1.18150845      1.01170136
H       0.83638417     -0.75108039     -1.39172815
H       1.29074929      0.78417263      1.22234827
H      -0.00468422      1.73367778     -1.20838054
H       0.49682050      2.62024313      0.05621860
H      -1.10590502      1.12847238      1.43189838
H      -0.71912745     -0.60290045      1.53631183
H      -2.40335150     -1.70541773      0.55419360
H      -3.10687244     -1.11070273     -1.06698647
