14
b3lypvtz=-203661.29961011023
C      -0.79321588      0.98051445     -0.30886280
C      -1.31420736     -0.47543160     -0.10348872
C      -0.04308488     -0.80273324      0.70852248
C       0.53239801      0.58927304      0.39607124
N       1.64037442      0.19230841     -0.48062007
C       1.82510219     -1.11921511     -0.64671217
O       0.86886588     -1.74375500      0.05631475
H      -1.36227982      1.72712146      0.24357279
H      -0.68673415      1.31258654     -1.34033493
H      -1.38705449     -1.06794962     -1.01318397
H      -2.24996782     -0.56071448      0.44620617
H      -0.16964115     -1.11601629      1.74083684
H       0.87353683      1.23010564      1.20828809
H       2.26590823      0.85390580     -0.90660971
