19
b3lypvtz=-195132.04705348
C      -0.35619038      1.56891525     -0.58486040
C      -0.50033210      0.37730906      0.36538612
C      -1.82239850     -0.34926956      0.08071679
O      -2.11819059     -1.38931653      1.00858864
C       0.65916095     -0.60939035      0.34923595
C       1.51816895     -0.86343658     -0.86185729
C       2.10255199     -0.18981065      0.35486588
H      -0.38940628      1.25497556     -1.62987068
H       0.57890985      2.10628021     -0.42645134
H      -1.16960905      2.27970408     -0.43065789
H      -0.56971910      0.77661254      1.38689490
H      -2.64231409      0.37848752      0.04477420
H      -1.77164141     -0.83539488     -0.89565133
H      -2.27092969     -0.99206661      1.87148898
H       0.44143935     -1.49079188      0.93873453
H       1.80813191     -1.88282560     -1.07556305
H       1.37120830     -0.25446027     -1.74276726
H       2.33782150      0.86291162      0.27533042
H       2.79323840     -0.74843293      0.97156281
