20
b3lypvtz=-182655.42435166
C      -2.16581922     -0.83815751     -0.60052043
C      -1.38328802     -0.49603480      0.66837135
C      -0.18676393      0.44740982      0.47098182
C      -0.57970652      1.81250540     -0.08973917
N       0.79503275     -0.17641173     -0.42281012
C       1.73572737     -1.10788987      0.18397147
C       2.18106799      0.23783981     -0.26359852
H      -1.50797226     -1.25452084     -1.36285421
H      -2.65563190      0.03924839     -1.02510509
H      -2.94363066     -1.57193515     -0.38307033
H      -2.05181567     -0.04285822      1.40594650
H      -1.01342402     -1.42005712      1.12169303
H       0.26539704      0.60668606      1.46535803
H       0.28689580      2.47322933     -0.14096547
H      -1.32879448      2.28910032      0.54487730
H      -0.98618777      1.71927539     -1.09643260
H       1.97533426     -1.98967575     -0.39709186
H       1.66858190     -1.27211754      1.25560951
H       2.40799879      0.96266847      0.51311356
H       2.75217854      0.35535353     -1.17608976
