15
b3lypvtz=-214519.75984145
C       1.43000576      0.04042739      0.29502271
C       0.13101410     -0.56057282     -0.26457763
O      -0.00504263      0.59885914     -1.16828542
C       1.15265404      1.16541950     -0.69045168
N       1.62986369      2.25190753     -1.08756100
C      -1.05490431     -0.67745364      0.66119789
N      -2.25094447     -1.01587776     -0.10541486
H       2.34009975     -0.52290307      0.09999329
H       1.39830460      0.33714938      1.34269526
H       0.24823254     -1.46465378     -0.86087238
H       2.49122819      2.47554582     -0.59751871
H      -0.85174377     -1.48687926      1.36870697
H      -1.13560617      0.25298306      1.24274530
H      -2.47462781     -0.25945802     -0.74222064
H      -3.04853352     -1.13449348      0.50654094
