14
b3lypvtz=-201267.01550693
C      -2.58300874     -0.91880310     -0.04150819
C      -1.55372553     -0.05177602      0.01177181
N      -1.71477558      1.33323601     -0.04789987
C      -0.19104633     -0.56222056      0.05745926
C       0.93139232      0.16715824     -0.03258680
N       2.16656367     -0.48862511      0.04494191
N       3.14449939      0.28460913     -0.04831420
H      -2.40175455     -1.98135370     -0.08269600
H      -3.61095953     -0.58420245     -0.08023239
H      -2.66381585      1.64769158      0.08180531
H      -1.07078131      1.86148628      0.52081903
H      -0.08142303     -1.63232330      0.17573985
H       0.95365047      1.24250416     -0.18359293
H       3.98713361     -0.30094215      0.01876220
