14
b3lypvtz=-224574.29036402
C      -1.60176095     -1.41057310      0.39985654
C      -1.15697394     -0.21593498     -0.00777417
N      -1.96085253      0.79495548     -0.52636466
C       0.28894273      0.12377781      0.04816539
N       0.61930858      1.41135122      0.44212956
N       1.13792049     -0.75908553     -0.33259120
O       2.46327890     -0.26792290     -0.14465757
H      -2.64979589     -1.67238561      0.33932931
H      -0.90923440     -2.14530530      0.77416847
H      -2.93146241      0.78874826     -0.26433772
H      -1.55065740      1.70937103     -0.60033363
H       0.04944151      1.79081228      1.18251315
H       1.60866313      1.54058789      0.59226635
H       2.99446820     -0.99470255     -0.48047082
