12
b3lypvtz=-249571.3363932897
C       0.45779828     -0.47772757     -0.35703510
O      -0.50779675     -0.05054369      0.49268465
C       1.21798638      0.35174016     -1.07152742
C      -2.23596288     -1.78112542      1.97299791
O      -1.68520014     -2.69841909      1.52200838
O      -2.80833770     -0.88782902      2.44232575
N       0.98802956      1.76287877     -0.92027276
H       0.54700190     -1.55365566     -0.39439946
H       1.97918775     -0.03321253     -1.74013064
H       1.81288095      2.24815745     -0.58605170
H       0.72026793      2.19817568     -1.79545570
H      -0.48585528      0.92156092      0.43485610
