17
b3lypvtz=-191954.38952946
C      -3.33906066     -0.00014684     -0.31177720
C      -2.06993260      0.00021882      0.52880331
N      -0.88235331      0.00007909     -0.32871765
C       0.24540320      0.00006691      0.22037449
N       1.43737750     -0.00004831     -0.54750770
C       2.55874111     -0.73702038      0.06358551
C       2.55878388      0.73698805      0.06343345
H      -3.37351712      0.88057136     -0.95372927
H      -4.22604076     -0.00003279      0.32443303
H      -3.37336929     -0.88125518     -0.95320208
H      -2.05810445      0.88023017      1.18121172
H      -2.05795229     -0.87937273      1.18177747
H       0.38251788      0.00015029      1.31871266
H       2.37814621     -1.23717027      1.00963445
H       3.16479861     -1.29168618     -0.63993867
H       3.16487106      1.29147548     -0.64020456
H       2.37822003      1.23734350      1.00938005
