13
b3lypvtz=-190458.79365897
C      -3.33128821     -0.12327867     -0.35840080
C      -2.15985089     -0.38444500      0.21491212
N      -1.01094077      0.33794117     -0.12482875
C       0.07733194      0.05446659      0.45826473
C       1.33660428      0.82695018      0.14778741
C       2.47285405     -0.04959346     -0.12836447
N       3.35735335     -0.75484166     -0.33610036
H      -3.41744505      0.65730217     -1.10160382
H      -4.21689723     -0.68335068     -0.09548838
H      -2.06354315     -1.17074415      0.96487068
H       0.16108752     -0.73741418      1.21148917
H       1.15225080      1.48056806     -0.70457705
H       1.59909837      1.45963763      1.00266554
