16
b3lypvtz=-181106.03402043
N       0.26226461     -0.31362880     -0.15899722
C       0.27830780     -0.74645473     -1.49949158
C      -0.79260153     -1.43783123     -2.29739841
C       0.17242204     -2.49437621     -2.81758614
C       1.30280523     -1.48063692     -2.51289241
C       1.04482381     -0.32301814     -3.50878501
C      -0.24036545     -0.06345202     -2.73479991
H       0.37743693     -1.07491370      0.49854493
H       0.96600351      0.38852608      0.03309736
H      -1.83333013     -1.54415712     -2.02815501
H       0.20876983     -3.36048450     -2.15580667
H       0.07677799     -2.82977987     -3.85398718
H       2.31246097     -1.81721162     -2.29543854
H       1.75717970      0.49308003     -3.38266113
H       0.97687488     -0.58875796     -4.56733005
H      -0.89273019      0.79669672     -2.77331304
