17
b3lypvtz=-191980.62786547
C      -2.32535323     -0.01979403      0.30911392
C      -0.97516332     -0.08272817     -0.40259979
C      -0.21753984      1.22349942     -0.25325220
N       0.99367256      1.37589812      0.08066867
C       1.80558729      0.18041931      0.32480154
C       1.21341451     -1.10294555     -0.25304674
N      -0.21150956     -1.24605241      0.05071871
H      -2.86466278     -0.95683696      0.17010107
H      -2.19326481      0.14719532      1.38105221
H      -2.93764178      0.79277928     -0.08278075
H      -1.17406538     -0.20988048     -1.47688244
H      -0.79120268      2.13060903     -0.46436761
H       2.80017420      0.37337763     -0.08623901
H       1.94031039      0.09049704      1.40832354
H       1.32349360     -1.09927477     -1.34167777
H       1.74804077     -1.98004676      0.11636516
H      -0.33384293     -1.35243500      1.05236048
