17
b3lypvtz=-191937.72067528
C      -1.96703527      0.93008831     -0.00920620
N      -0.60791324      0.49804644     -0.25341457
C      -0.45987865     -0.86361185     -0.85059016
C       0.49353609     -1.28040332      0.26714102
C       1.56032030     -0.24270375      0.48597089
N       2.24229100      0.42744008     -0.59505932
C       0.16109318      0.06447884      0.93144368
H      -2.56699105      0.19622885      0.55568318
H      -1.96128276      1.86724628      0.55042800
H      -2.46631141      1.11416800     -0.96194650
H      -0.08301013     -0.87363260     -1.87626313
H      -1.39741287     -1.42467286     -0.80401108
H       0.55773692     -2.27587402      0.68194149
H       2.22722008     -0.51558033      1.29542319
H       1.55186846      0.93538043     -1.14155869
H       2.86884574      1.12714118     -0.21299639
H      -0.15307638      0.31606033      1.93701460
