16
b3lypvtz=-202058.38117081
C       3.42937248     -0.15645543     -0.00024844
C       2.10161026      0.58776024      0.00029839
N       0.98359722     -0.35517149      0.00033820
C      -0.19135699      0.10946333      0.00008397
N      -1.28746634     -0.72991118      0.00015386
C      -2.62751791     -0.37097512     -0.00006635
N      -3.17487096      0.77311873     -0.00036732
H       3.51137559     -0.79299171     -0.88189757
H       3.51178104     -0.79351003      0.88098990
H       4.26650845      0.54368265     -0.00024343
H       2.04611079      1.23895296     -0.87965509
H       2.04655540      1.23837080      0.88070589
H      -0.43704022      1.17446733     -0.00018170
H      -1.06496949     -1.71393969      0.00040134
H      -3.27063039     -1.24981381      0.00004865
H      -2.50675295      1.54132742     -0.00045531
