18
b3lypvtz=-205213.42876292
C      -2.87698468     -0.50585264     -0.33684791
C      -1.71607301      0.03028855      0.03020956
O      -1.57691488      1.36365320      0.26493031
C      -0.45088428     -0.75792021      0.27593699
N       0.70702785      0.00768124     -0.19091160
C       2.00049300     -0.48832595      0.27947631
C       3.14343143      0.35521400     -0.26669057
H      -2.95564584     -1.56963253     -0.50127681
H      -3.76072924      0.10334874     -0.45734851
H      -0.61688025      1.52333597      0.29393056
H      -0.32719502     -0.89283504      1.35561012
H      -0.53561995     -1.75620424     -0.16842020
H       0.70449283      0.04166356     -1.20525089
H       1.99333438     -0.44277090      1.37134061
H       2.15839210     -1.54398350      0.01140237
H       3.02823699      1.39931979      0.02582875
H       3.17907829      0.31197864     -1.35783687
H       4.10181930     -0.00566268      0.10825179
