13
b3lypvtz=-190403.41363239
C       3.18303638     -0.45990691     -0.12873584
C       2.05627614     -0.05295606     -0.19720469
C       0.69845587      0.41490801     -0.26900104
N       0.45965014      1.55335999     -0.77862388
N      -0.21990009     -0.54908063      0.28543987
C      -1.40869635     -0.02586698      0.98199242
C      -1.54871180     -0.65411476     -0.34373666
H       4.18276671     -0.81219993     -0.07208068
H      -0.53615444      1.77685026     -0.77513859
H      -1.52155719      1.05080673      1.04333571
H      -1.67167698     -0.56838644      1.88025396
H      -1.75675285     -0.00641235     -1.18809233
H      -1.91673556     -1.66700095     -0.43840825
