15
b3lypvtz=-212135.31861342
C      -1.57399372      1.25506842     -0.36382496
C      -1.25023357     -0.01382591     -0.08399335
N      -2.18137714     -1.00842884      0.24495444
N       0.03893899     -0.55887319     -0.15602126
C       1.26213034      0.07919842      0.05586762
N       1.48703625      1.26103585      0.46903808
N       2.33272752     -0.76018981     -0.26796403
H      -2.57682633      1.61223606     -0.18174950
H      -0.86947993      1.93369276     -0.81511092
H      -3.13145346     -0.67158344      0.28538405
H      -1.93824010     -1.53691643      1.07229097
H       0.08039498     -1.46732757     -0.59049152
H       0.62934892      1.78491032      0.59542273
H       2.24543635     -1.71262753      0.05666343
H       3.20462088     -0.34444710      0.02447023
