14
b3lypvtz=-203688.23067893
C      -1.36745643     -0.06433027     -0.85828482
C      -1.47167507     -0.04939101      0.66262646
C      -0.14258215     -0.04336987     -0.01052366
C       0.98637605      0.99611100      0.05689859
C       1.93379027     -0.22602632      0.13763575
O       3.11937562     -0.40056237      0.22506528
N       0.86622364     -1.08742498      0.06916952
H      -1.62085666     -0.98581644     -1.36581367
H      -1.63497628      0.83292470     -1.40032286
H      -1.79323445     -0.96132770      1.14834547
H      -1.81000924      0.85775307      1.14538303
H       0.99791967      1.62384660      0.94580155
H       1.12289803      1.60238635     -0.83651115
H       0.81420699     -2.09477275      0.08053051
