10
b3lypvtz=-251381.49154317
N       1.46156363      0.71785539      1.05482808
C       1.20571221      0.45549773     -0.14102781
F       2.05789445      0.65338368     -1.15730375
C      -0.11651213     -0.12518037     -0.58776472
O      -0.32508729     -0.36457387     -1.75090536
C      -1.15229424     -0.38748970      0.48600618
N      -2.28623521     -0.87203812      0.20777405
H       2.39720245      1.10302018      1.18111817
H      -0.89032315     -0.14517937      1.51082205
H      -2.35192073     -1.03529554     -0.80364688
