11
b3lypvtz=-236308.06758283
C      -1.37692566     -0.00720544      0.33122058
O      -2.29193516     -0.99128467      0.62561415
O      -0.05478628     -0.62251993      0.28706611
C       0.96830707      0.19924607      0.04305856
N       0.84842085      1.44852825     -0.12699212
C       2.22908069     -0.52331088     -0.00207674
N       3.26051942     -1.03060152     -0.05483892
H      -1.39152532      0.72659431      1.13359520
H      -1.54178824      0.48265075     -0.63061186
H      -2.39290671     -1.57718653     -0.13219792
H       1.74353933      1.89508958     -0.29860781
