15
b3lypvtz=-214503.78030642
C       1.15225067      1.83735620     -0.08852692
N       0.05713615      1.21679233      0.09764853
C      -0.13861779     -0.12281647     -0.18698672
C       0.73915741     -1.14011410     -0.07020529
N       2.11038245     -1.07170403      0.15610250
O      -1.42728888     -0.44842240     -0.56102226
C      -2.44304760     -0.11361293      0.38356658
H       2.02971997      1.41167679     -0.57949605
H       1.21385624      2.88134949      0.20740955
H       0.34451156     -2.13928207     -0.19476434
H       2.47667648     -1.87592667      0.64302845
H       2.44023233     -0.21091870      0.57129479
H      -2.31185947     -0.68209739      1.31089080
H      -2.43599465      0.95234511      0.61258136
H      -3.39074688     -0.38581316     -0.07670599
