21
b3lypvtz=-195908.77599612
C      -2.91147294     -0.20357994     -0.35730376
C      -1.65950475     -0.18483014      0.49806215
O      -0.60479436      0.37723150     -0.26384177
C       0.61627871      0.60131082      0.44374941
C       1.38834252      1.64670041     -0.34891656
C       1.40245864     -0.69955530      0.67679946
C       1.79305365     -1.45371055     -0.59452395
H      -3.74764448     -0.62675723      0.20189780
H      -3.17792074      0.80662641     -0.66909048
H      -2.75555706     -0.80673382     -1.25223374
H      -1.82179445      0.41487667      1.40472409
H      -1.41106502     -1.20304168      0.82270778
H       0.37156598      1.02193627      1.42965957
H       2.34577037      1.86400404      0.12735777
H       0.81329526      2.57038029     -0.40967014
H       1.57740583      1.30226463     -1.36542845
H       0.80848594     -1.35609247      1.31769649
H       2.29648534     -0.45013947      1.25590206
H       2.49527426     -0.88566075     -1.20590369
H       0.91612715     -1.66537349     -1.20686265
H       2.26953217     -2.40350821     -0.34721037
