10
b3lypvtz=-246373.33604752016
C       0.55846734      0.48538369     -0.15485531
O       0.82422432      1.67705938     -0.29260039
C      -0.82639250      0.14597887      0.17214225
N      -1.24026498     -1.06577616      0.34193392
N      -1.57577680     -2.14843209      0.48590367
O      -1.71949463      1.17256025      0.30128328
N       1.47596854     -0.50632125     -0.29047512
H      -1.17239235      1.96105187      0.12944294
H       1.25707780     -1.47873300     -0.17643292
H       2.41858326     -0.24277156     -0.51634232
