15
b3lypvtz=-216893.21318406
C      -1.52703344      0.52499113     -0.18177853
C      -1.05803451     -0.94015202      0.11009060
C       0.34242036     -0.40140955      0.35940291
C      -0.12110194      1.03720309      0.13823101
C       0.87790552      0.39501198     -0.79468065
O       2.21147784      0.80054576     -0.67857460
O       1.22589000     -0.85840090      1.33860350
H      -1.87151863      0.71877611     -1.19928030
H      -2.28692324      0.86627609      0.51772331
H      -1.50773345     -1.33177008      1.02156752
H      -1.16797377     -1.67485863     -0.69076571
H       0.13778211      1.94005724      0.67266521
H       0.61141860      0.17553391     -1.82560421
H       2.54603557      0.45493996      0.15979416
H       1.58738897     -1.70674407      1.05260579
