10
b3lypvtz=-225463.81312431
O       1.28867942     -0.63241327     -0.64022076
C       2.12771471     -0.06895182      0.01560440
C       2.83253366     -0.65808550      1.16187707
C       3.79066807     -0.13184110      1.97645642
C       4.06619953     -1.18233824      2.88320480
N       3.33906564     -2.24193885      2.63472351
O       2.55211724     -1.91830350      1.54300412
H       2.44322836      0.96954897     -0.20116553
H       4.22787030      0.84978366      1.93317217
H       4.76442307     -1.20656035      3.70454380
