16
b3lypvtz=-181092.97433091
C      -2.00041672     -0.17047004      0.32634173
C      -0.54915045      0.07186057      0.04860410
C       0.25493010      1.35163285      0.19281004
N       1.33650597      0.74965414     -0.68217688
C       1.84963421     -0.36553419      0.20943797
C       0.50771129     -1.05324573      0.07011388
C       0.25943677     -0.24788462     -1.17220054
H      -2.62294059      0.60241471     -0.13057301
H      -2.20318634     -0.17192983      1.40031354
H      -2.32532421     -1.13425360     -0.07108820
H      -0.20529897      2.19047380     -0.33057103
H       0.59562610      1.67540062      1.18045490
H       2.65155103     -0.89503184     -0.30421000
H       2.19581185     -0.03675099      1.19275173
H       0.22468539     -2.07760033      0.26911881
H       0.03052458     -0.48893551     -2.19902705
