13
b3lypvtz=-213762.26051247
N       0.00246193      2.08943703      0.15402515
C       0.26579046      0.86639896     -0.04053190
C       1.53320223      0.10304366      0.01694747
N       1.38938844     -1.16106735     -0.00969664
C      -0.04566446     -1.49225730     -0.09732371
C      -0.81097563     -0.17541853     -0.30416127
O      -1.91799404     -0.05356133      0.56505503
H       0.83953471      2.63737704      0.35407164
H       2.51313570      0.56349502      0.10871317
H      -0.19076241     -2.21916330     -0.89580465
H      -0.35233509     -1.96558332      0.83752310
H      -1.13037539     -0.08381315     -1.35111799
H      -2.09550646      0.89131257      0.66240061
