16
b3lypvtz=-202039.01264536
C       2.16161134      1.31199293     -0.07932375
C       1.41716692      0.20347530      0.00436560
C       2.02316237     -1.16575937      0.11590606
N       0.02234891      0.27702187      0.01375960
C      -0.87139822     -0.76026801     -0.10881654
N      -2.14547385     -0.64703397     -0.10361718
N      -2.59624975      0.69863694      0.04337882
H       1.71562059      2.29429880     -0.16542056
H       3.23826545      1.25364734     -0.06112102
H       1.77349895     -1.78791411     -0.74690376
H       1.67043415     -1.68785752      1.00839240
H       3.10574913     -1.08582543      0.17029068
H      -0.38764874      1.19195775     -0.11493873
H      -0.46322941     -1.75485993     -0.21900251
H      -3.60614856      0.65853654      0.00846200
H      -2.35328027      1.04001087      0.97358989
