18
b3lypvtz=-181927.20315264
C       2.20504925      0.29933733     -0.02958516
C       1.05866278     -0.47437423     -0.67765109
C      -0.33091344     -0.33171514      0.00064680
C      -1.37744930     -1.12259204     -0.81178825
C      -0.30926770     -0.84063446      1.45661409
C      -0.72170308      1.08727471      0.00075316
N      -1.02702786      2.19720316     -0.00342498
H       1.98735786      1.36714004      0.01872709
H       3.11780689      0.17377851     -0.61318093
H       2.41512381     -0.04898901      0.98204801
H       1.29276669     -1.54233512     -0.69381156
H       0.95667558     -0.16289675     -1.71956902
H      -2.37050620     -1.02312073     -0.37433063
H      -1.42129781     -0.77177547     -1.84269766
H      -1.10848400     -2.17986702     -0.81826469
H       0.37513962     -0.26485838      2.07660902
H       0.00566651     -1.88534152      1.47060970
H      -1.30168360     -0.77560888      1.90207810
