15
b3lypvtz=-191213.76710544
C       2.48513706     -0.29494567     -0.22881718
C       1.54616080      0.50693737      0.24931078
C       0.09182436      0.11692416      0.43123840
C      -0.78172579      1.25090530      0.02452247
N      -1.48382076      2.09300974     -0.32648494
N      -0.25066174     -1.12594199     -0.23466720
C      -1.57695627     -1.65030958      0.07867817
H       3.50781059      0.04525057     -0.31809472
H       2.26445257     -1.30916399     -0.53092882
H       1.78799341      1.51755571      0.55745292
H      -0.08711589     -0.02717594      1.50390521
H      -0.13539985     -1.01745825     -1.23529682
H      -2.39858043     -0.95860888     -0.14753115
H      -1.62513035     -1.90164321      1.13963226
H      -1.73387770     -2.56803535     -0.48642739
