16
b3lypvtz=-202023.00552502
C      -3.19557977     -0.78832845      0.04558913
C      -2.14483790      0.27111440      0.05347009
N      -0.91293359     -0.01411579     -0.09337021
N      -0.01445640      1.00824680     -0.11820049
N       1.32142773      0.77886570      0.06107287
C       1.79392777     -0.39686488     -0.07071350
C       3.26293488     -0.62819879      0.07113953
H      -2.74255227     -1.76887263     -0.08783178
H      -3.91526348     -0.61930206     -0.76067492
H      -3.76289239     -0.78464711      0.98054945
H      -2.47053520      1.31021060      0.18241997
H      -0.29417383      1.88654755      0.30078483
H       1.15088114     -1.24607082     -0.29155754
H       3.46996642     -1.35150684      0.86494356
H       3.77605416      0.30397732      0.30117602
H       3.68280472     -1.04402901     -0.84963100
