15
b3lypvtz=-191176.8663669
C      -1.92632419     -0.43609496      0.41670209
C      -0.47249516     -0.53369698      0.80957112
C      -1.05582747      0.76896683      0.29782015
N      -0.29975085      0.67054228     -0.97208542
C       0.42415528     -0.52223198     -0.44516126
C       1.88118262     -0.36499959     -0.09375042
N       2.63122994      0.64967882     -0.16793503
H      -2.61559131     -0.44190565      1.25133985
H      -2.28656132     -0.91366257     -0.48684964
H      -0.14968521     -0.82602138      1.79772950
H      -1.24282800      1.71031949      0.79429041
H       0.31995730      1.45940171     -1.11661331
H       0.32943012     -1.39958033     -1.09521571
H       2.33060923     -1.28742260      0.28662684
H       2.13249901      1.46670693     -0.53005464
