16
b3lypvtz=-181120.15379308
C      -0.03683342     -1.50356494      0.23856696
C       1.39764200     -1.01951091      0.01377351
C       1.57610748      0.34087668      0.61093953
C       0.88202392      0.21956418     -0.71646148
C      -0.57115594     -0.26627240     -0.57353029
C      -1.56793777      0.64454123      0.06369869
N      -2.69689460      0.86957849     -0.46952711
H      -0.27719258     -2.43856232     -0.26263426
H      -0.35026474     -1.57643155      1.28233633
H       2.23926475     -1.64870744     -0.23720343
H       2.57821182      0.74568334      0.55885734
H       1.03725972      0.61972699      1.50955092
H       1.27622588      0.70103463     -1.60022050
H      -0.97543921     -0.58997407     -1.53078880
H      -1.26291966      1.10045846      1.01378623
H      -3.24809765      1.51298146      0.09885634
