15
b3lypvtz=-214502.31519102622
C      -1.62353868     -0.34173181     -0.66201763
C      -0.80998599      0.42063998      0.36873225
C       0.42639205     -0.35423639      0.87271037
C       1.42009247     -0.75343849     -0.18132755
N       2.37496052      0.04687990     -0.52743396
N       3.22329307      0.74959010     -0.80250782
O      -0.43376713      1.65664185     -0.23938671
H      -1.02516193     -0.53069128     -1.55361323
H      -2.49626854      0.24064553     -0.95535181
H      -1.96358614     -1.29673874     -0.25791866
H      -1.44420409      0.61791691      1.24398483
H       0.08440830     -1.25747667      1.38507415
H       0.92496562      0.25377568      1.63428106
H       1.35799748     -1.66927348     -0.74670403
H      -0.01559701      2.21749691      0.42147877
