16
b3lypvtz=-227734.81423131
C      -0.91331742      0.94458402      1.15660498
C      -0.49556989     -0.02364376      0.03986705
C      -1.08506252      0.41564282     -1.30861409
O      -1.00342454     -1.31623728      0.35256391
C       1.01140371     -0.04686546     -0.06072379
N       1.63046678     -1.13301869      0.12923025
O       3.01892087     -0.99654131      0.00233091
H      -0.57204696      1.96204772      0.95712232
H      -0.50399408      0.61625220      2.11166494
H      -2.00077502      0.95230103      1.23255941
H      -0.74864170      1.41550462     -1.58906728
H      -0.79727330     -0.28595772     -2.09115578
H      -2.17273381      0.42338147     -1.23630649
H      -0.24845256     -1.91495821      0.42936564
H       1.53967091      0.87575472     -0.29627322
H       3.34082952     -1.88814618      0.17083124
