13
b3lypvtz=-211339.49954619
C      -0.64912291      1.62427623     -0.41979879
C      -0.29701414      0.37608339     -0.11627075
N      -1.25730809     -0.68012085     -0.07303657
N      -2.34476446     -0.39448544      0.44929237
C       1.12501490     -0.07201675      0.04974855
N       2.07324499      0.65470918      0.50219765
N       1.35931788     -1.35726879     -0.35851054
H       0.09399661      2.39293180     -0.57480628
H      -1.69025620      1.87929836     -0.55431741
H      -2.94244789     -1.22859297      0.36455910
H       1.73601675      1.57489112      0.76501738
H       0.57354690     -1.97272766     -0.47220803
H       2.24605268     -1.75410462     -0.09825769
