16
b3lypvtz=-181123.44769699
C       2.34817315     -0.46961827     -0.00044295
C       1.15003113     -0.40075347     -0.00026438
C      -0.30872350     -0.29263819     -0.00003758
C      -0.89122375     -0.96685029     -1.26505965
C      -0.89089661     -0.96765223      1.26470867
C      -0.74612928      1.17662299      0.00051010
N      -0.04206721      2.22188987      0.00085110
H       3.40711639     -0.54551684     -0.00062985
H      -0.65113603     -2.02991379     -1.27008675
H      -1.97710829     -0.85926718     -1.28020525
H      -0.48543987     -0.51595151     -2.16967054
H      -1.97677436     -0.86005084      1.28021636
H      -0.65083653     -2.03072545      1.26898420
H      -0.48485594     -0.51734790      2.16949989
H      -1.83377208      1.29335902      0.00077805
H       0.95491477      1.98830908      0.00061359
