15
b3lypvtz=-191213.58629486
C      -0.69630466      1.24581171     -0.34812585
C      -0.18869234     -0.12181345      0.04699921
C      -1.14656442     -1.13800750      0.54434641
N      -0.52345060     -1.28276058     -0.78349922
C       1.23550513     -0.16283345      0.59564244
C       2.21991536      0.38073017     -0.33846837
N       2.98086865      0.82488113     -1.07803333
H      -0.08887501      1.67134766     -1.14905067
H      -1.72870571      1.18821173     -0.69520976
H      -0.66532935      1.93702689      0.49709354
H      -0.83684065     -1.87485988      1.27595429
H      -2.19060782     -0.85458068      0.60470003
H      -1.17381100     -1.02233137     -1.51732287
H       1.29720549      0.40490820      1.52796948
H       1.50568690     -1.19573059      0.81700470
