12
b3lypvtz=-226209.39511966
C       2.70429552      0.75037986      0.21708951
C       1.62069898      0.34292354     -0.11822426
C       0.39662542     -0.21437802     -0.54001145
C      -0.81909382      0.19148511     -0.12234901
N      -2.00102451     -0.48314942     -0.40257812
O      -0.95641064      1.31659980      0.62886791
O       0.42627827     -1.24414043     -1.49003618
H       3.64749814      1.13594633      0.51218979
H      -2.71529020      0.10889234     -0.80904384
H      -1.84097864     -1.30052459     -0.97511956
H      -1.67654783      1.16919857      1.25536841
H       1.21394932     -1.77323309     -1.32933530
