11
b3lypvtz=-259597.04558771
C       1.30190445      0.23058272     -0.29937172
N       2.37290213     -0.19291446      0.21412082
C      -0.07120286     -0.13240780      0.16378138
N      -1.07144226      0.37455858     -0.44987625
O      -2.27658139     -0.07937289      0.12424187
O      -0.14105677     -0.97356101      1.20197297
O       1.32978985      1.07680510     -1.34685947
H       2.17267884     -0.81791523      0.98965510
H      -2.95452180      0.35477858     -0.40260023
H      -1.07832743     -1.12462569      1.39872247
H       0.41585724      1.28407212     -1.59378694
