19
b3lypvtz=-192729.61329023
C       1.53142071      1.87231239     -0.05838257
C       0.78289262      0.59846557     -0.36880802
C       1.05872233     -0.67320475      0.38819785
N       1.08174740     -1.91285621     -0.35182034
C      -0.25902756      0.04444872      0.57478974
C      -1.56200500     -0.51295437      0.05904251
N      -2.54325166      0.57192326     -0.10174360
H       1.72947616      1.96109119      1.01156916
H       0.95883284      2.75317579     -0.35788051
H       2.49288439      1.90814642     -0.57709280
H       0.56813997      0.43345489     -1.41959549
H       1.75446084     -0.57280905      1.22055443
H       1.98787829     -2.05846771     -0.78121445
H       0.90889911     -2.70359347      0.25780451
H      -0.36301589      0.57765069      1.51339743
H      -1.97185183     -1.21395760      0.79294360
H      -1.37333388     -1.08501205     -0.85516365
H      -2.22485470      1.21579924     -0.81778489
H      -3.42725115      0.19711404     -0.42662690
