13
b3lypvtz=-213774.79903027
C       1.19057979     -1.63426035      0.14786839
C       1.00361639     -0.15291093     -0.03728234
O       1.84803742      0.57476649     -0.49247065
C      -0.34429647      0.47896123      0.45196932
N      -0.53609840      1.87231577      0.09121103
C      -1.48736017     -0.32960191      0.02344135
N      -2.35911486     -0.98422078     -0.34329523
H       0.57530558     -2.17275568     -0.57632706
H       0.85835621     -1.95173117      1.13823269
H       2.23544139     -1.89414727     -0.00051962
H      -0.30184835      0.40498243      1.54731818
H       0.34101838      2.36089554      0.23878628
H      -0.73320392      1.94746464     -0.90070334
