16
b3lypvtz=-202010.22697229
C      -1.81616391      1.11365070     -0.34966927
N      -1.58816941     -0.24821695     -0.81342697
C      -1.36578458     -1.27692596      0.18258315
C      -0.24538894     -0.84789193     -0.70996907
C       0.91571900     -0.12088055     -0.16461051
N       2.04426672     -0.20448723     -0.74868972
N       3.09436311      0.52592495     -0.25176203
H      -1.44419007      1.81666161     -1.09579879
H      -2.89193596      1.26375613     -0.24847252
H      -1.35130313      1.35362662      0.61513310
H      -1.30799465     -0.96986296      1.22440399
H      -1.85759618     -2.22873012      0.01791135
H       0.01104159     -1.47227411     -1.55731751
H       0.78859462      0.47962282      0.74171557
H       3.04610830      0.72599960      0.74429785
H       3.96833350      0.08992738     -0.50202862
