17
b3lypvtz=-171046.84913458
C      -2.74893216      0.00856120     -0.15868478
C      -1.62033438     -0.25933176      0.15351998
C      -0.25423658     -0.57865835      0.51210886
C       0.64058373     -1.34437045     -0.50920509
C       1.83265446     -0.45367753     -0.08421697
C       0.83793730      0.55633018      0.55424422
C       0.54918785      1.77939129     -0.30126189
H      -3.74773509      0.24111710     -0.43133670
H      -0.25111074     -1.10701477      1.46801536
H       0.72993657     -2.41943181     -0.36254165
H       0.32372702     -1.15673535     -1.53351332
H       2.46622868     -0.93772644      0.65910889
H       2.46772958     -0.06676519     -0.88077883
H       1.08857259      0.87064555      1.56799796
H       1.42458511      2.43179166     -0.33071063
H      -0.28879328      2.35341725      0.09662092
H       0.30159534      1.50630943     -1.32879433
