16
b3lypvtz=-204453.97239505
C       3.29679616     -0.28417003      0.03822573
C       1.91945051      0.28816056      0.10213812
C       0.79390348     -0.38466525     -0.13677771
C      -0.57028359      0.17466664     -0.06344141
N      -0.91944660      1.39910425     -0.05783177
C      -1.69143688     -0.84107412      0.00860358
O      -2.95485788     -0.24600588      0.09172813
H       3.80529581     -0.18268132      1.00102869
H       3.28581482     -1.33859543     -0.23648190
H       3.90682902      0.25596484     -0.69141989
H       1.85630510      1.33824296      0.37699102
H       0.85519140     -1.44247508     -0.37716071
H      -0.13362167      2.04092298     -0.13617484
H      -1.62308955     -1.48435281     -0.88105816
H      -1.51431914     -1.49351520      0.87517418
H      -2.78592800      0.71173790      0.06677494
