12
b3lypvtz=-202898.25865712
N       2.71247935     -0.65750837     -1.58441446
C       1.78652772     -0.50117340     -0.91682463
C       0.64500059     -0.27723326     -0.09092672
C       0.41368388      0.93416395      0.76246091
C      -0.60269655      0.57124683     -0.28563356
C      -1.35377894     -0.68186596      0.13662785
O      -0.10326983     -1.39574299      0.39422873
H       1.02429329      1.79545973      0.52819577
H       0.20772689      0.77293370      1.81365145
H      -0.85480006      1.22033216     -1.10895734
H      -1.89633537     -1.16356144     -0.67675867
H      -1.97893099     -0.61695095      1.02835069
