13
b3lypvtz=-213766.41941309
N      -2.78739365      0.12733127     -0.51856945
C      -1.69843001     -0.51239134     -0.45917334
C      -0.31199266      0.05180144     -0.30015125
N      -0.02597993      1.30191615     -0.46973340
C       0.72245569     -0.88244602      0.06138963
C       2.00752361     -0.47597499      0.24073604
O       2.42313026      0.76643027      0.10057420
H      -2.63982266      1.13785967     -0.43633189
H      -1.74943988     -1.60047267     -0.51524397
H      -0.82168049      1.87152048     -0.74649551
H       0.47790996     -1.92434927      0.19971325
H       2.79304312     -1.17117015      0.51696480
H       1.61067663      1.31004517     -0.15347912
