18
b3lypvtz=-205221.43668114
C      -3.23419578     -0.22365648     -0.10650541
C      -1.79801365      0.12375503     -0.49341885
C      -0.77892157     -0.30913681      0.57233560
C       0.62807353      0.06664528      0.24042755
O       0.83272266      1.40779143      0.15977196
C       1.63288282     -0.79243052      0.02729206
N       2.92613997     -0.24732346     -0.28871006
H      -3.35837694     -1.29947156      0.03845811
H      -3.52241098      0.26972095      0.82453286
H      -3.93881678      0.08936401     -0.87859003
H      -1.54319832     -0.35603544     -1.44238700
H      -1.70578345      1.19899177     -0.65502028
H      -0.82805239     -1.39027344      0.71827984
H      -1.04496978      0.15706442      1.52716212
H       1.77730852      1.49948626     -0.06457838
H       1.47281608     -1.86203191      0.09500711
H       3.63085116     -0.51837738      0.38737495
H       3.25548289     -0.54743315     -1.19901815
