12
b3lypvtz=-249580.42925657
N       2.15855262     -0.12229461     -0.40424705
C       0.91223074      0.40060204     -0.26896102
O       0.76319089      1.64415756     -0.28330741
C      -0.19782103     -0.50539191     -0.11322385
C      -1.45286980      0.02972437      0.02329316
O      -2.57069119     -0.69213205      0.17582165
O      -1.69548268      1.31045705      0.01930097
H       2.32751918     -1.11054293     -0.39854031
H       2.93078883      0.51062009     -0.51287317
H      -0.05187411     -1.57513671     -0.10323837
H      -2.34913124     -1.62991714      0.17386203
H      -0.77451220      1.73985423     -0.10208663
