18
b3lypvtz=-205217.83864222
C      -1.88867292     -1.38198269     -0.52089250
C      -1.24643562     -0.57387161      0.61603605
C       0.08324340      0.02280100      0.22000654
N       0.39686153      1.20769100     -0.08315075
C      -0.55628061      2.29333400     -0.09965585
O       1.02652814     -0.95750675      0.19965216
C       2.34559491     -0.57942581     -0.19953519
H      -1.22820713     -2.18566608     -0.84460345
H      -2.09968926     -0.74851775     -1.38373069
H      -2.82914915     -1.82540342     -0.19131423
H      -1.92349230      0.21284649      0.94320778
H      -1.07155000     -1.22719526      1.47245796
H      -0.57315276      2.73909179     -1.09702561
H      -1.58498060      2.02699368      0.16565001
H      -0.22172987      3.07572089      0.58582401
H       2.75724306      0.16895434      0.47759143
H       2.93412128     -1.49289026     -0.16180370
H       2.34369287     -0.16618855     -1.20825900
