13
b3lypvtz=-237046.46203446
C      -1.71538587     -0.25467864     -0.25518345
C      -0.50927343      0.63474824     -0.38482231
O      -0.78267298      1.92839848     -0.68423383
N       0.71838712      0.34379991     -0.25367387
C       1.18425307     -0.92258159      0.05016992
N       2.43684822     -1.17060408      0.17333763
O       3.27562612     -0.09923367     -0.01623167
H      -2.37250469      0.12275320      0.53182031
H      -1.45334086     -1.28011625     -0.01655277
H      -2.27956212     -0.25449209     -1.19075160
H      -1.73367959      2.05833249     -0.76472910
H       0.52910320     -1.77404198      0.20138552
H       2.70220180      0.66761598     -0.21703479
