14
b3lypvtz=-201288.67757323
C       3.06807625     -0.38964944      0.00004673
C       1.89316362      0.24002164      0.00001867
N       0.65892474     -0.38104909     -0.00004869
C      -0.57760540      0.23100682     -0.00007447
N      -0.86731818      1.46840523     -0.00008100
N      -1.57563347     -0.80057586     -0.00013595
C      -2.78793271     -0.43676011     -0.00011033
H       3.14339243     -1.46939174     -0.00000291
H       3.98616056      0.17627586      0.00012259
H       1.85086663      1.32099797      0.00004965
H       0.61815282     -1.38843467     -0.00008638
H      -0.05485005      2.07554033     -0.00004637
H      -3.08579687      0.61237420      0.00018405
H      -3.55632336     -1.20491815      0.00012242
