15
b3lypvtz=-214525.85990497
C      -2.45436801     -0.57516131      0.10276377
C      -1.37910110      0.09130367      0.50065224
C      -0.22464752      0.45162455     -0.38942340
O      -0.01591855      1.85234167     -0.26939749
C       1.03743371     -0.33814915      0.00870145
N       2.06002205      0.16124366      0.57588216
N       1.00226853     -1.66505297     -0.36067152
H      -3.24754904     -0.83269602      0.79189421
H      -2.58642980     -0.87941105     -0.92928624
H      -1.27150955      0.40467119      1.53403108
H      -0.47168544      0.18375946     -1.42331465
H       0.66632282      2.11288699     -0.89774561
H       1.91334348      1.15421721      0.74147933
H       0.09622770     -2.10343386     -0.39814572
H       1.72364872     -2.23130306      0.05860039
