16
b3lypvtz=-202051.90734382
C      -3.08444429     -0.31477216      0.11950140
N      -1.78088572      0.24892943     -0.16560665
C      -0.63746700     -0.47478049     -0.08755806
C       0.60995723      0.05532969     -0.01244910
N       0.72566609      1.48648184      0.03925556
C       1.77101986     -0.81261338      0.01562375
N       3.00925564     -0.49365527      0.05728196
H      -3.15693683     -1.30978810     -0.32020449
H      -3.85901316      0.30485357     -0.33110154
H      -3.29198720     -0.40037834      1.19249809
H      -1.64668581      1.23781641     -0.00659991
H      -0.75829439     -1.55123848     -0.12723716
H       1.34793411      1.78136499      0.78347818
H       1.09605942      1.86655570     -0.82582141
H       1.54167630     -1.88180308      0.00968067
H       3.11622875      0.52373168      0.05062572
