13
b3lypvtz=-213764.07936123
C      -1.22523294      1.31284052      0.96050897
C      -0.47942422      0.39731254      0.31746527
C      -1.17542324     -0.82759298     -0.13360118
N      -0.62238450     -1.78810669     -0.75778495
N       0.87800076      0.67446974      0.12966329
C       1.69018912     -0.10107320     -0.46151952
O       2.97898382      0.25036191     -0.59347792
H      -2.27928261      1.15412106      1.13622367
H      -0.77893254      2.22928832      1.31699375
H      -2.23963529     -0.83139340      0.12496260
H      -1.29534451     -2.52331661     -0.96601777
H       1.47167779     -1.06666293     -0.90148358
H       3.07680838      1.11975169     -0.17193264
