16
b3lypvtz=-202048.62573282
C      -1.50583599     -0.55470923     -0.39133374
C      -0.26570527      0.08477426      0.21462616
C       0.21607959      1.38069318     -0.51463031
N       1.28832236      0.57326090     -1.11403800
C       1.06905823     -0.52642155     -0.31066073
N       1.79482691     -1.54295097     -0.11054752
N      -0.43491970      0.23224100      1.64802115
H      -2.39332998      0.02119635     -0.12515127
H      -1.42706077     -0.60606911     -1.47663758
H      -1.63342645     -1.57338559     -0.01723115
H       0.56026427      2.14523677      0.18572428
H      -0.47532562      1.82397378     -1.23259580
H       2.18305106      0.88848155     -1.45622403
H       1.34455344     -2.18760255      0.53563550
H       0.43869688      0.47440952      2.10110333
H      -0.75924897     -0.63312833      2.06393972
