14
b3lypvtz=-227004.92566431977
C      -0.57936863     -1.06867793      0.03392470
C      -1.51851431      0.10954665      0.37653320
N      -0.41106311      1.05861877      0.07348195
C       0.36199872     -0.01046021     -0.60967315
C       1.82528997     -0.07187847     -0.19684464
O       2.62737963     -0.79732200     -0.71960887
O       2.12221349      0.73543468      0.83396136
H      -0.14338311     -1.54590712      0.90868790
H      -0.96619360     -1.83163083     -0.63450963
H      -1.89135573      0.17501985      1.39830996
H      -2.36052927      0.19092212     -0.31461796
H       1.28626993      1.20372386      1.04760328
H      -0.65886977      1.85682220     -0.49794729
H       0.30612578     -0.00421157     -1.69930082
