14
b3lypvtz=-227013.02754581
C      -1.11880722     -1.25425505     -1.35354284
C      -1.20099988     -0.87972150     -0.07770800
N      -0.46871041      0.13549530      0.54821312
C       0.21708264      1.13624033     -0.25129583
C       1.65209415      0.74843460     -0.62947250
O       2.28174695      1.34423215     -1.45753434
O       2.15956939     -0.28131986      0.06758754
H      -1.71013249     -2.08683389     -1.70161048
H      -0.46998237     -0.77561625     -2.07299891
H      -1.85469445     -1.40820299      0.60581326
H      -0.91245386      0.49873246      1.37555020
H       0.29214170      2.06008245      0.32316369
H      -0.31637921      1.37080141     -1.17523499
H       1.44942507     -0.60806917      0.64907007
