14
b3lypvtz=-227012.68163122
N       2.32043606     -0.73742642      0.26839004
C       1.29513155      0.11315350     -0.02546485
O       1.38485057      1.31351816     -0.11246494
O       0.14289661     -0.59650788     -0.18821117
C      -1.02509091      0.17529596     -0.41187907
C      -1.92124966      0.45248749      0.75016703
C      -2.30678806     -0.57290766     -0.29732487
H       2.19660841     -1.72287929      0.11887866
H       3.24817494     -0.35863710      0.20880119
H      -0.89978566      0.92977600     -1.17406792
H      -2.44036184      1.40009099      0.77829043
H      -1.60505501      0.07575593      1.71248823
H      -3.09756511     -0.33985846     -0.99629019
H      -2.24142987     -1.61400223     -0.01457958
