17
b3lypvtz=-171051.74772454
C      -3.00320633      0.88206000      0.00049369
C      -2.42825095     -0.54283155     -0.00036892
C      -0.96828814     -0.57167757     -0.00017534
C       0.23552180     -0.57459190     -0.00008428
C       1.67198336     -0.58990724      0.00019951
C       2.45330356      0.47285274     -0.74900963
C       2.45296698      0.47361465      0.74868467
H      -2.67458287      1.43181158      0.88267656
H      -4.09374254      0.85309760      0.00037280
H      -2.67442042      1.43294739     -0.88091913
H      -2.80076946     -1.08588628      0.87334008
H      -2.80052474     -1.08474285     -0.87489386
H       2.11360006     -1.57904176      0.00079029
H       3.34883040      0.15725967     -1.26583067
H       1.87933497      1.23373431     -1.25742819
H       1.87875992      1.23500244      1.25607074
H       3.34825840      0.15855875      1.26623167
