17
b3lypvtz=-191967.8064915
C       2.21800248     -0.44117094     -0.33890621
C       0.84627644      0.08785227      0.02127007
C       0.72896077      1.59463234      0.00203468
N       0.10695017     -0.58276211      1.09886216
C      -0.33683473     -0.78914533     -0.28563907
C      -1.68670841     -0.26838301     -0.64381626
N      -2.51898687      0.27567225      0.13894747
H       2.24452346     -1.53212001     -0.32163982
H       2.96701414     -0.07102546      0.36572156
H       2.51451206     -0.11252606     -1.33689719
H       1.01752734      1.99210787     -0.97323470
H      -0.28499307      1.92162706      0.22013279
H       1.39402806      2.02797851      0.75228066
H       0.60592273     -1.39578693      1.44375508
H      -0.08951901     -1.73220692     -0.76611940
H      -1.96265660     -0.37825000     -1.69546027
H      -2.12184897      0.29110946      1.08417546
