16
b3lypvtz=-202017.08558809
C      -1.94386749     -1.26738565     -0.21904920
C      -1.07660794     -0.00009011     -0.28788356
C      -1.94290720      1.26786342     -0.21896521
C      -0.10848314     -0.00050490      0.86292624
N       1.16899757     -0.00078727      0.88783698
N       1.74093838     -0.00098906     -0.41381846
N       2.97275521      0.00042438     -0.32625109
H      -1.33810108     -2.17013924     -0.30374983
H      -2.49692959     -1.31805024      0.72209159
H      -2.67088275     -1.26879764     -1.03271287
H      -0.51678888     -0.00026295     -1.21967163
H      -2.66990610      1.26989175     -1.03264170
H      -2.49594837      1.31886829      0.72216899
H      -1.33645416      2.17016469     -0.30357882
H      -0.56913717     -0.00051910      1.85278344
H       3.31363069      0.00009463     -1.29651486
