10
b3lypvtz=-223033.19948564
C      -0.52628606      0.68895436     -0.25165691
C      -1.82159735      0.13567733     -0.17664881
N      -1.79700493     -1.16074585      0.02893577
O      -0.46062947     -1.50504353      0.09643453
C       0.28216870     -0.39490184     -0.07215797
N       1.65796756     -0.62244952     -0.02281987
N       2.34170762      0.40747991     -0.17911597
H      -0.22526938      1.70749673     -0.41004041
H      -2.77594996      0.63057520     -0.26429234
H       3.32489327      0.11295722     -0.12302462
