12
b3lypvtz=-202890.83576598
C       2.98550894      0.27867814      0.49473547
C       1.90496377     -0.11354741      0.14682503
C       0.59099507     -0.56531199     -0.26895548
O       0.38175428     -1.72072394     -0.58693552
C      -0.48402140      0.46870878     -0.27578951
C      -1.74513768      0.11565607      0.45614391
N      -1.72069152      0.15509763     -0.99498201
H       3.94789673      0.60916146      0.80061156
H      -0.16177765      1.50095857     -0.30541055
H      -2.29614101      0.91197638      0.93969560
H      -1.76821381     -0.84742351      0.95136784
H      -1.63513574     -0.79323019     -1.35624985
