16
b3lypvtz=-227773.89014987
C       0.79314896     -1.02238177     -0.96506032
C       0.20387194      0.18038488     -0.22559624
C       1.09212510      0.61082833      0.94593257
O       0.11666716      1.22955083     -1.19290673
C      -1.20693627     -0.16567367      0.26358646
N      -2.30589755      0.27232443     -0.17546546
O      -1.18443196     -1.06528488      1.27829815
H       0.18535948     -1.25664740     -1.83863387
H       0.82648533     -1.89508117     -0.31545023
H       1.80286441     -0.78477405     -1.29934540
H       0.66757926      1.47916110      1.45628394
H       1.19352974     -0.18714359      1.67846988
H       2.07987961      0.87694136      0.56946807
H      -0.01447471      2.06402112     -0.72963964
H      -2.14040371      0.91055457     -0.94947099
H      -2.10936677     -1.24678009      1.49942979
