14
b3lypvtz=-201285.45789742
C       3.32887587      0.54257932      0.15863248
N       2.10058190      0.70127910      0.45168286
C       1.16658160     -0.00917907     -0.29062199
N      -0.08091067      0.10785851     -0.04492844
C      -1.00776728     -0.58303856     -0.78715517
C      -2.32277791     -0.46853000     -0.48100366
N      -2.81265035      0.23628366      0.57970345
H       4.08365354      1.08402279      0.72036297
H       3.67621177     -0.12026028     -0.64312149
H       1.54550510     -0.66913371     -1.08860650
H      -0.70224115     -1.22366451     -1.61134398
H      -3.05854400     -0.99663066     -1.07327642
H      -2.15318947      0.84080362      1.04580284
H      -3.76332894      0.55760979      0.54488530
