14
b3lypvtz=-180350.71631599
C      -2.69740525      1.07601828      0.47111130
N      -1.95462544      0.70012637     -0.47428444
C      -1.13706699     -0.49069902     -0.27225560
C       0.30475750     -0.19128654     -0.54874510
C       1.30423155     -0.51931165      0.27493119
C       2.67676322     -0.26894264      0.01220813
C       3.84835705     -0.07329039     -0.17709988
H      -3.31865637      1.95948002      0.34174067
H      -2.75988421      0.55845629      1.43670992
H      -1.25738586     -0.92398990      0.73037456
H      -1.48514939     -1.23435212     -0.99941359
H       0.51542378      0.31804581     -1.48170248
H       1.08127787     -1.01541189      1.21533648
H       4.87936254      0.10515739     -0.35423334
