15
b3lypvtz=-237811.8721181
N       1.13504641      0.47272579      1.01012628
C       0.66617139     -0.51327887      0.18361361
C      -0.82136660     -0.71442238      0.09756275
C      -1.57877539      0.46028965     -0.51021285
O      -1.51409922      1.56946224      0.39598591
N       1.39965092     -1.32134391     -0.49528383
O       2.78060275     -0.98824588     -0.30774068
H       2.10736514      0.70726682      0.89387894
H       0.50051798      1.23643106      1.18093434
H      -1.22209353     -0.90321718      1.09754405
H      -0.99828750     -1.60143932     -0.50894583
H      -1.14147657      0.72645852     -1.47807015
H      -2.62150489      0.16859911     -0.67333848
H      -1.90974096      2.33875752     -0.02287233
H       3.21789009     -1.63804315     -0.86338172
