17
b3lypvtz=-194354.65626404
C       1.69002650     -0.95840771     -0.44361566
C       0.61801125      0.02435701      0.01644244
C       1.18913442      1.40992817      0.28305525
C      -0.30064758     -0.58802996      1.14869869
C      -1.44973633     -0.62171749      0.14203119
O      -1.67328085      0.72769312     -0.29520256
C      -0.61970020     -0.02245924     -0.90913381
H       1.26652168     -1.94096546     -0.66323313
H       2.45334909     -1.08741190      0.32670051
H       2.18676756     -0.59849840     -1.34803381
H       0.39780001      2.10963012      0.54983507
H       1.91081588      1.38092910      1.10301421
H       1.70566650      1.79648395     -0.59916365
H       0.03418760     -1.57541920      1.46573705
H      -0.48140469      0.03671636      2.02327615
H      -2.28632978     -1.30328215      0.07687868
H      -0.65003805     -0.12764632     -1.98638261
