15
b3lypvtz=-191229.20651796
N       2.89883219      0.01906033     -0.36328113
C       1.82018891     -0.00894487      0.03757405
C       0.45227329     -0.04336635      0.53617953
C      -0.38193073      1.23450083      0.19312040
C      -1.70216128      0.68473168     -0.38144972
N      -1.74088059     -0.69264093      0.11655216
C      -0.38562009     -1.20286599     -0.05026302
H       0.49746336     -0.16141028      1.61911661
H       0.13483419      1.87108906     -0.52134466
H      -0.54975423      1.81620422      1.09702034
H      -2.57264234      1.24360804     -0.03843137
H      -1.67790035      0.73724522     -1.47957554
H      -2.42973211     -1.26093007     -0.35939647
H      -0.10002337     -1.36530368     -1.10010260
H      -0.23921685     -2.13552320      0.49337543
