15
b3lypvtz=-170292.44651466
C       2.73773551     -0.94557385     -0.24113423
C       1.53055694     -0.77323923      0.28952536
C       0.67448391      0.41939436      0.09741589
C       1.17112362      1.66340958      0.01214946
C      -0.73265555      0.17275222      0.02891117
C      -1.90940834     -0.07936922     -0.02259961
C      -3.33421866     -0.36503840     -0.09032040
H       3.31218768     -1.84050900     -0.04388583
H       3.18397665     -0.20907967     -0.89720086
H       1.09677194     -1.56302341      0.89344815
H       0.52503562      2.51459954     -0.14662355
H       2.23125380      1.84665885      0.11636980
H      -3.74729970     -0.06747277     -1.05673735
H      -3.88163896      0.17510736      0.68525798
H      -3.52902447     -1.43100837      0.04210300
