12
b3lypvtz=-223846.14929796
C      -2.46443313     -0.46708353      0.00268783
C      -1.03597075     -0.05263785      0.00264591
N      -0.68797154      1.20276624      0.00495412
O       0.74293795      1.13650722      0.00369385
C       1.03904208     -0.16523414      0.00036400
N       2.34635779     -0.51579358     -0.05045979
N       0.00270627     -0.95421782      0.00287354
H      -2.67771384     -1.07670865      0.88160107
H      -2.67800481     -1.07419579     -0.87786082
H      -3.11251331      0.40616491      0.00403850
H       3.02259307      0.17280920      0.23130606
H       2.55344123     -1.47235820      0.17880074
