15
b3lypvtz=-214514.86078086
N       2.59509947      1.06160827      0.39021724
C       2.45854739     -0.08522113     -0.10724665
O       1.32869959     -0.82360952     -0.32216875
C       0.09904916     -0.20497894     -0.19131528
C      -0.95625012     -0.87850531      0.23985375
C      -2.34515514     -0.31542143      0.32018552
N      -2.45143418      1.01613980     -0.27653251
H       1.71601821      1.47819371      0.69164919
H       3.31757405     -0.66039459     -0.43834836
H       0.05193379      0.82681845     -0.51222794
H      -0.82693474     -1.90926316      0.55022531
H      -2.62847680     -0.23267938      1.37480276
H      -3.04028750     -1.05028013     -0.11383644
H      -2.41744815      0.95411347     -1.28771290
H      -3.33786802      1.44128290     -0.03705894
