17
b3lypvtz=-215273.97259583
C      -1.16154334      1.00027691     -1.07950481
C      -0.68310886     -0.10126029     -0.12329180
C      -1.49358696     -0.07293415      1.18205148
O      -0.88187817     -1.35884964     -0.75639544
C       0.78438934      0.09887560      0.19037738
N       1.61999047     -0.81099861     -0.08952996
N       2.94038914     -0.66591340      0.26770511
H      -0.59662162      0.95955513     -2.01072061
H      -2.21586910      0.84551185     -1.31035133
H      -1.04671691      1.99295588     -0.63922273
H      -1.38664905      0.88113372      1.70265889
H      -1.16489246     -0.87337590      1.84469434
H      -2.54897244     -0.22583767      0.95458910
H      -0.02011721     -1.80060728     -0.77021895
H       1.07737372      1.03854912      0.66943190
H       3.25440898      0.29947207      0.32077420
H       3.52340447     -1.20665333     -0.35294679
