16
b3lypvtz=-204433.74632771
O       2.68761013      0.18607573     -0.84761221
C       2.27221890      0.98744678      0.16152844
C       1.18516564      0.75167085      0.89597697
N       0.40097986     -0.41457448      0.61161498
C      -1.01157480     -0.17450947      0.42714543
C      -1.49058007      0.18564663     -0.94748011
C      -1.79187483     -1.17635346     -0.37284625
H       2.02459115     -0.52370015     -0.89909115
H       2.91486372      1.84276522      0.31654403
H       0.88765438      1.43775129      1.68282645
H       0.53995441     -1.13093366      1.31639419
H      -1.53228190      0.29907035      1.25808458
H      -2.29842807      0.89802266     -1.03835408
H      -0.74070433      0.24705546     -1.72325720
H      -1.24216407     -2.01706514     -0.77223796
H      -2.80543012     -1.39816861     -0.06913611
