15
b3lypvtz=-214535.10272419
C       2.99069492     -0.27749260     -0.00558117
C       1.56872174     -0.74440780     -0.02018530
C       0.46821312      0.02373314     -0.00564849
O       0.49264416      1.40317910      0.02474175
N      -0.79277133     -0.53998268     -0.02455976
C      -1.83232485      0.20336586     -0.00102364
N      -3.08590014     -0.33084878      0.03912066
H       3.53049125     -0.66127183      0.86554204
H       3.09775537      0.81079334      0.01851863
H       3.53609589     -0.62250404     -0.88936360
H       1.38891383     -1.80963490     -0.04338454
H       1.40764865      1.69923498      0.04107752
H      -1.80272672      1.29168573      0.02468803
H      -3.17094622     -1.31940389     -0.13375003
H      -3.86895168      0.24575338     -0.20956710
