13
b3lypvtz=-242065.14086399
C       2.32721978      0.18974631      0.07792342
C       1.07621986      0.26640249      0.51206246
F       0.68997098      1.27797103      1.30901492
N       0.05592656     -0.65320303      0.31472406
C      -1.22591387     -0.29379746     -0.15839257
C      -1.54819669      0.83999754     -0.76930628
O      -2.14432476     -1.28173649      0.06236575
H       2.62164649     -0.58665352     -0.61029580
H       3.06612652      0.89445708      0.42337104
H       0.38150273     -1.54729127     -0.02530406
H      -2.58146579      1.05421056     -0.99001100
H      -0.79177954      1.55783353     -1.04184642
H      -1.92693226     -1.71773676      0.89569448
