17
b3lypvtz=-217663.52208983
C       2.26465930     -0.90031375     -0.22453705
O       1.47766090      0.20996488      0.17836747
C       0.19738034     -0.13170014      0.62367271
C      -0.89288731     -0.41516806     -0.39186729
C      -1.97617362     -1.42519043     -0.10374273
C      -0.84022269      0.90943264      0.33406821
O      -0.45198657      2.07092846     -0.33778641
H       2.42706851     -1.59113622      0.60967334
H       1.79258560     -1.44552309     -1.04768798
H       3.22495309     -0.50873244     -0.55430748
H       0.17829983     -0.66433347      1.57228640
H      -0.56251723     -0.34881214     -1.42275910
H      -2.87478596     -1.21634868     -0.68812592
H      -2.26119530     -1.40765764      0.95035940
H      -1.65124878     -2.44166503     -0.33793369
H      -1.59617385      1.10534479      1.08554587
H       0.50421376      2.01645332     -0.46368777
