13
b3lypvtz=-234645.21521794
C      -1.48444781     -0.65148119      0.19163547
C      -0.39263480      0.13778101      0.13966847
N       0.85720465     -0.41699383      0.32919869
N       1.78871156      0.41988575      0.24722378
N       3.02131020     -0.11117024      0.51019384
O      -0.51886511      1.47813436     -0.09950155
N      -2.77695359     -0.18211065      0.08510272
H      -1.34560041     -1.70326016      0.38589339
H       3.73799919      0.39405766      0.01160433
H       3.05744396     -1.11875107      0.38134604
H       0.38395592      1.83431016     -0.08155345
H      -2.86851202      0.74884390     -0.29132859
H      -3.45961172     -0.82924573     -0.27180509
