18
b3lypvtz=-205201.39513924
C       3.09670742     -0.27160335      0.23467095
C       1.73526314     -0.21966658     -0.39961981
O       1.06000965      1.04727255     -0.37501992
C       0.50095334     -0.04943828      0.37149008
C      -0.83490441     -0.57068715     -0.08432957
C      -1.99335748      0.33816709      0.32368229
N      -3.27137620     -0.24232706     -0.10347368
H       3.40266152     -1.30689697      0.40170317
H       3.84034552      0.19753409     -0.41254400
H       3.09854429      0.25146769      1.19097498
H       1.64883136     -0.73258433     -1.35578786
H       0.60863374      0.07038741      1.44892018
H      -0.82020112     -0.67901342     -1.17274140
H      -1.00229553     -1.56601925      0.33729885
H      -1.80899976      1.34590485     -0.07060045
H      -2.01609400      0.42294985      1.41354322
H      -4.04345372      0.32579770      0.22464257
H      -3.33087778     -0.24544285     -1.11597260
