13
b3lypvtz=-190471.17945979
C       0.00000751      1.15967860      1.27711916
C       0.00000077      0.28239531      0.00000064
C      -0.00000798      1.15968688     -1.27711221
C       1.19880750     -0.57566220     -0.00000986
N       2.16077722     -1.20502935     -0.00002144
C      -1.19880824     -0.57566324      0.00000561
N      -2.16077710     -1.20502966      0.00001311
H      -0.88743827      1.79039834      1.28221030
H      -0.00000088      0.54269128      2.17306631
H       0.88746703      1.79037884      1.28221374
H       0.88743702      1.79040763     -1.28219960
H      -0.88746828      1.79038619     -1.28220238
H       0.00000070      0.54270537     -2.17306335
