16
b3lypvtz=-202012.40186993
C      -0.64008422      1.65533154      0.07348362
C      -0.58482994      0.14307800      0.13712946
N       0.54822521     -0.41272579      0.83695634
N       1.82006004     -0.36571752      0.42728195
N       1.99073512      0.06769598     -0.73585476
C      -1.11899561     -0.67244492     -1.00688427
C      -1.85909666     -0.64332335      0.30484779
H      -0.67229791      2.08515439      1.07737035
H       0.23406203      2.04568307     -0.44575748
H      -1.53145171      1.98328649     -0.46269310
H       0.47583977     -0.59940842      1.82257322
H       2.99784822      0.00538571     -0.89617966
H      -0.58347114     -1.57324323     -1.26559608
H      -1.53354346     -0.13436085     -1.84764583
H      -2.78227805     -0.08385147      0.36789411
H      -1.82816668     -1.53346762      0.91857434
