16
b3lypvtz=-181119.72042876
C       1.87206158     -1.19764387      0.51593076
C       0.89699723     -0.82684598     -0.30514991
C      -0.06267810      0.29215718     -0.08876839
C      -1.50961867     -0.04743036     -0.11462545
C      -2.02478645     -1.26496577      0.01031377
C       0.36698755      1.48971476      0.68902255
N       0.23678302      1.59076544     -0.76724542
H       2.53692140     -2.01326495      0.26328558
H       2.04001408     -0.70934369      1.46744510
H       0.75022874     -1.37327758     -1.23292348
H      -2.16181749      0.80919299     -0.24919818
H      -1.40371223     -2.14120729      0.14608656
H      -3.09453711     -1.42237301     -0.01268827
H      -0.37164030      2.04564042      1.25303772
H       1.35826263      1.48432238      1.12425701
H       1.15694011      1.53294733     -1.19395795
