12
b3lypvtz=-249555.21647184
C      -0.03813836      0.35396508     -0.25196503
C      -1.28415197      0.18372873      0.18985343
O      -1.61774901     -0.83123976      1.02413679
O      -2.36198909      0.96008179     -0.11002947
N       1.01023360     -0.50679502      0.11793926
C       2.28648018     -0.34987746     -0.32142125
O       2.66311755      0.53141899     -1.06802016
H       0.23898794      1.15632054     -0.91463282
H      -2.55993435     -0.77003197      1.21854673
H      -2.09860033      1.67203074     -0.70289976
H       0.80328979     -1.27357175      0.73669831
H       2.95845405     -1.12602993      0.08179396
