12
b3lypvtz=-200528.93669883
N       2.38970821     -0.38595623      0.00001138
N       1.62468278      0.61082481      0.00001766
C       0.28118009      0.30441656      0.00000490
C      -0.79039066      1.18349935      0.00000470
C      -1.96665242      0.40816214     -0.00000706
C      -1.58219462     -0.92124265      0.00000423
N      -0.22510188     -0.97499694      0.00000293
H       0.36344940     -1.79101512      0.00000814
H       3.34774451     -0.02129917     -0.00001407
H      -0.70404135      2.25638717      0.00000774
H      -2.98137304      0.76725510     -0.00001699
H      -2.17953903     -1.81703603      0.00000644
