16
b3lypvtz=-227749.96803917
C      -2.61243403     -0.20341291      0.78792686
C      -1.34781958     -0.09412053     -0.03532254
O      -0.23836566      0.03615365      0.87469952
C       0.98923894      0.19759017      0.29446816
C       1.93361351     -0.72736541      0.47608577
O       3.24350240     -0.46543663      0.08691473
N       1.15068038      1.36853552     -0.45486453
H      -2.56859491     -1.06601124      1.45325608
H      -2.75593972      0.69044358      1.39582720
H      -3.47746971     -0.31641771      0.13250878
H      -1.38094535      0.76848475     -0.70350748
H      -1.19394591     -0.98912690     -0.64731348
H       1.72698864     -1.64800020      1.00328453
H       3.58425864     -1.22217547     -0.39841355
H       2.10898303      1.48000648     -0.75705210
H       0.83824934      2.19085285      0.04672243
