16
b3lypvtz=-227734.1130334
N      -2.48392508     -0.60590558      0.01637281
C      -1.04254200     -0.81449878     -0.11048976
C      -0.31368641      0.37195386      0.51379434
O      -0.70764721      1.59598315     -0.12090535
C       1.19635848      0.29152198      0.50441226
C       1.98005174     -0.90199699      0.17782097
O       1.81014088      0.13975045     -0.78915530
H      -2.99494875     -1.32018348     -0.48679881
H      -2.72694458      0.28764866     -0.39559134
H      -0.77766349     -1.72320421      0.43567498
H      -0.69205190     -0.93765346     -1.14579275
H      -0.65122414      0.47198075      1.54787917
H      -0.26098932      1.63049187     -0.97573267
H       1.67385698      1.05509727      1.11254121
H       2.98434525     -0.99972586      0.57720231
H       1.48347056     -1.83561762     -0.05920107
