19
b3lypvtz=-195133.85394191
C      -3.20217983     -0.02890494     -0.27335039
C      -1.85447456      0.37293658      0.32547865
C      -0.70544107     -0.52887163     -0.13105299
C       0.62879693     -0.14026499      0.46900473
C       1.37412682      1.09376271     -0.08369901
C       2.53678720      0.11567844     -0.31391826
O       1.71046766     -1.01547951      0.04538697
H      -3.17824495      0.01689040     -1.36422393
H      -4.00241002      0.62913477      0.06901243
H      -3.46826511     -1.05022554      0.00725551
H      -1.63360255      1.41070026      0.05676656
H      -1.92020612      0.34978009      1.41765559
H      -0.91419998     -1.56653077      0.14780869
H      -0.62119642     -0.51046404     -1.22206663
H       0.55947355     -0.13691180      1.56389675
H       1.55302825      1.91031596      0.61223560
H       0.93803214      1.48941646     -1.00015045
H       2.92024210      0.03198610     -1.33262562
H       3.37757795      0.23522345      0.37583279
