13
b3lypvtz=-234634.00921651
C       1.81113597     -0.38176806     -0.03515852
N       0.94640696      0.52270350      0.18283274
N      -0.35415072      0.10286939      0.39732394
N      -1.27982820      1.06508384      0.10539873
C      -2.47301847      0.69491131     -0.08750345
O      -2.85471720     -0.62602507     -0.07422784
N       3.16913105     -0.10214956     -0.05810555
H       1.56308187     -1.44159116     -0.14500682
H      -0.57602904     -0.82668614      0.04100046
H      -3.24051332      1.43614936     -0.26689903
H      -3.78707192     -0.69640003     -0.29739017
H       3.37199180      0.88700614     -0.09279161
H       3.70358124     -0.63410352     -0.72758012
