12
b3lypvtz=-226244.57121744
N      -2.10794327      0.66028592      0.14481754
C      -0.83654753      0.09952328      0.09318140
C      -0.34982972     -1.15628778     -0.05199161
C       1.08012475     -1.03167167     -0.20676552
C       1.34496501      0.28695805     -0.11187646
O       2.50208350      0.97448215     -0.07235104
O       0.19475953      1.00903503      0.06479166
H      -2.25492585      1.25221381      0.95317014
H      -2.82995782     -0.04276682      0.09473454
H      -0.92475419     -2.06625355     -0.05546885
H       1.80053762     -1.81622286     -0.35269732
H       2.38148798      1.83090445     -0.49954448
