14
b3lypvtz=-226995.19006819
C       2.38209944     -0.15198664     -0.05209835
N       1.27302228      0.77614644     -0.23361397
C       0.10292598      0.35501927     -0.09034598
C      -1.17137533      1.15828462     -0.21175657
O      -2.18847776      0.16341119     -0.30165566
C      -1.68338811     -0.95948564      0.37166452
O      -0.26233907     -0.93598435      0.20827373
H       2.38733999     -0.58544159      0.95216381
H       3.31872079      0.38054233     -0.20435396
H       2.33424615     -0.98049187     -0.76451892
H      -1.18870533      1.77286394     -1.10771423
H      -1.31104624      1.79719831      0.66856849
H      -1.91027601     -0.92538489      1.44517094
H      -2.08274679     -1.86469113     -0.08182875
