17
b3lypvtz=-217692.3722144
C       2.36840465      0.00000018     -0.12318296
C       0.92534158      0.00000011      0.31566931
O       0.30609155     -1.16967346     -0.17887299
C      -1.07068966     -1.23985458      0.18285180
C      -1.81415090      0.00000007     -0.30362962
C      -1.07068973      1.23985458      0.18285222
O       0.30609147      1.16967363     -0.17887276
H       2.41675605      0.00000135     -1.21146330
H       2.87237034     -0.88815574      0.25521402
H       2.87237091      0.88815495      0.25521594
H       0.83715263     -0.00000003      1.41656299
H      -1.46007287     -2.15264545     -0.26567551
H      -1.15992625     -1.33141962      1.27516421
H      -1.84533440      0.00000025     -1.39481254
H      -2.84218420     -0.00000002      0.06745518
H      -1.46007301      2.15264562     -0.26567466
H      -1.15992616      1.33141916      1.27516467
