13
b3lypvtz=-211381.22194829
C      -1.56187420     -1.31355154     -0.01598090
N      -0.31008668     -0.59265470     -0.00474893
N       0.89254034     -1.24988105      0.01074942
C       1.75241200     -0.25575476      0.00186311
N       1.20943756      0.99241307      0.00079944
C      -0.08692402      0.73894534      0.00103225
N      -1.09599737      1.68203996     -0.06849543
H      -2.29646511     -0.75635414     -0.59675852
H      -1.39255802     -2.27896466     -0.48462378
H      -1.94479964     -1.47486503      0.99443262
H       2.81586730     -0.43097358     -0.00016070
H      -1.88032514      1.52248759      0.54613050
H      -0.72902500      2.61641051      0.03452894
