14
b3lypvtz=-229609.62362757
C      -2.85620005      0.22900468      0.02032670
C      -1.64270423     -0.64108126      0.00694600
C      -0.37758909     -0.22119452     -0.03328941
F      -0.15847038      1.15571190     -0.07957263
N       0.71946038     -1.02571915     -0.04342378
C       1.94139248     -0.63931463     -0.01058911
N       2.46880217      0.61130659      0.08111284
H      -3.45617219      0.05216236      0.91773561
H      -3.50375513      0.01269576     -0.83435105
H      -2.59698782      1.28506855     -0.01058466
H      -1.76898573     -1.71438122      0.03377221
H       2.69823112     -1.41999618     -0.03233050
H       3.45729104      0.73091506     -0.04095517
H       1.87480442      1.41787607      0.00570395
