16
b3lypvtz=-181123.70192617
C      -1.71619080      1.49659080     -0.14831852
C      -1.29560583      0.14172108     -0.63102734
C      -0.27692127     -0.61425575     -0.20320150
N       0.10687198     -1.80019884     -0.84232649
C       0.61712275     -0.26143978      0.96996899
C       1.99727950      0.04781359      0.59946116
C       3.13055039      0.31131499      0.30923081
H      -1.66353885      2.23459106     -0.95472479
H      -2.75341731      1.49093962      0.20040737
H      -1.09905811      1.87258384      0.66646250
H      -1.87787434     -0.25252550     -1.46066036
H       0.44261140     -2.52831438     -0.22949339
H      -0.56270679     -2.15466369     -1.50824833
H       0.62341462     -1.10605665      1.67050960
H       0.19629280      0.57854708      1.51981822
H       4.13086985      0.54325251      0.04214208
