16
b3lypvtz=-204416.65271863
C       2.03021267     -0.10257688     -0.15397991
C       0.62350259     -0.60911285     -0.36395889
C      -0.21695091     -0.88493534      0.84364761
C      -0.53141959      0.31948709     -0.01796499
C      -1.84351434     -0.41021918     -0.31631798
O      -1.42952053     -1.55630955      0.48134236
N      -0.33417034      1.70487759      0.22141050
H       2.09740333      0.52801401      0.73161405
H       2.36757617      0.49536569     -1.00320409
H       2.72304321     -0.93813349     -0.03694228
H       0.48774006     -1.28367640     -1.20491422
H       0.15407181     -0.99302860      1.85403531
H      -2.05984943     -0.68003451     -1.35386500
H      -2.71585810      0.07177264      0.13499047
H      -1.04930740      2.09680276      0.82110240
H      -0.30295921      2.24170701     -0.63699534
