19
b3lypvtz=-221049.14958807
C       2.47773643     -0.04245313     -0.21452073
N       1.15778886     -0.41502221     -0.71365433
C      -0.01661698      0.00904539      0.07204820
C       0.01610161      1.52321219      0.30353193
C      -0.15516287     -0.73721835      1.41063877
C      -1.20389609     -0.32933979     -0.83682864
F      -2.41838739     -0.04245109     -0.20887277
H       3.22993434     -0.52282949     -0.84043455
H       2.62692207      1.03343702     -0.30077563
H       2.67714665     -0.32879147      0.82764117
H       1.12319989     -1.42121093     -0.82834149
H       0.78503423      1.80372730      1.02334983
H      -0.94420490      1.85680325      0.69468342
H       0.21127197      2.04902361     -0.63228947
H       0.68737535     -0.52079039      2.06816957
H      -0.19079922     -1.81735526      1.24808670
H      -1.06955625     -0.44715706      1.92804419
H      -1.15332258      0.25270888     -1.75701280
H      -1.21168415     -1.39474048     -1.08335539
