17
b3lypvtz=-215294.6940568
C       2.10364243      1.10193534      0.32482890
C       1.38139858     -0.16420143     -0.03517485
O       2.22316914     -1.22623164     -0.13514212
N       0.14680743     -0.32931031     -0.24380851
C      -0.76840213      0.79987939     -0.14640344
C      -2.19285358      0.33942658     -0.42151572
N      -2.62154084     -0.60158344      0.61425547
H       1.69113593      1.52210130      1.24330645
H       3.16538469      0.91689827      0.46121080
H       1.96969918      1.84822124     -0.46016552
H       1.66967463     -1.98492259     -0.37190633
H      -0.73511493      1.24377763      0.85550538
H      -0.50093726      1.58395674     -0.86545102
H      -2.85440910      1.20880293     -0.39658440
H      -2.23026428     -0.07355371     -1.43963397
H      -1.99787884     -1.40144297      0.60185181
H      -3.55141805     -0.95027933      0.41544406
