15
b3lypvtz=-191190.24050142
C      -2.05324380     -0.99326432      0.16205068
N      -1.11135989     -0.22822123      0.95058708
C       0.11042276      0.16389409      0.34764094
C       0.54276970     -0.26659843     -0.86031438
N       1.73586792      0.11470323     -1.47117680
C       0.92162313      1.03444571      1.12708935
C       1.61355410      1.78342454      1.76837436
H      -2.31899427     -0.52271208     -0.79723784
H      -1.64362490     -1.98263600     -0.05574691
H      -2.96448231     -1.13340672      0.74173286
H      -1.54647557      0.54738734      1.42894176
H      -0.07607325     -0.92054192     -1.45727257
H       2.18400238     -0.61436643     -2.00509594
H       2.38890455      0.57809296     -0.85486917
H       2.21720944      2.43989927      2.34329658
