12
b3lypvtz=-223796.16554538
C      -3.26078905     -0.03695378      0.00027900
N      -2.10389844     -0.56219180      0.00036002
C      -1.02031253      0.30480753      0.00027674
N       0.14906849     -0.20176070      0.00020221
O       1.10771977      0.81400311      0.00004510
C       2.40390573      0.32282658     -0.00010708
N       2.81038335     -0.85887140     -0.00013684
H      -3.43339104      1.04495319      0.00018796
H      -4.13275598     -0.68335010      0.00033682
H      -1.17449063      1.38802522      0.00009879
H       3.06894931      1.18094904     -0.00021573
H       2.03547303     -1.52126188     -0.00002098
