17
b3lypvtz=-171075.20320036
C       2.48153455     -0.05864115      0.22314246
C       1.01372202     -0.07505188     -0.05434913
C       0.22923546     -1.14358289     -0.21783557
C      -1.20278093     -0.77730165     -0.39460334
C      -1.84376670     -0.07551415      0.78410252
C      -1.23138669      0.73925029     -0.32145207
C       0.21038313      1.20959146     -0.16641227
H       2.69859806      0.40779287      1.18896592
H       2.89895347     -1.06555902      0.23484153
H       3.01915118      0.52464854     -0.53094355
H       0.57366391     -2.16960849     -0.18831468
H      -1.83218986     -1.33585181     -1.07450577
H      -1.33559818     -0.13274787      1.73852492
H      -2.92433198     -0.08099747      0.84464851
H      -1.89949256      1.30759281     -0.95276161
H       0.35092456      1.85345620      0.70831127
H       0.53557457      1.79513720     -1.03374315
