9
b3lypvtz=-261264.79364346
O      -1.49870679      1.17058918      0.57665271
C      -1.58965330      0.12106170      0.00370288
C      -0.37747401     -0.58236400     -0.61332457
O      -0.51650107     -1.53502351     -1.33369202
C       1.00060062     -0.04704477     -0.21258916
O       1.46365936     -0.27391243      0.86983010
O       1.59471260      0.63422247     -1.19728429
H      -2.54365519     -0.40819286     -0.17431581
H       2.46701779      0.92056421     -0.87997984
