12
b3lypvtz=-226232.37366946
C       0.14792794     -1.04858023      0.80063379
C       0.81830564      0.19099312      0.28897593
C       0.13069530      1.30745379      0.08601193
O      -1.23719359      1.37899605      0.33756329
C      -1.81491265      0.24092845      0.79959635
N      -1.28139666     -0.87584359      1.03319627
O       2.16188733      0.15059864      0.03278446
H       0.29152078     -1.87679102      0.09290962
H       0.61940921     -1.37550638      1.73772650
H       0.53891000      2.23512045     -0.27834030
H      -2.87479228      0.40014257      0.96273187
H       2.49963899     -0.72751183      0.23299727
