20
b3lypvtz=-182678.1276256
C       2.97868853     -0.21428524      0.37311464
C       1.71997386     -0.52107920     -0.45160350
C       0.71107232      0.58970287     -0.42067378
C      -0.54051093      0.56242523      0.05959880
N      -1.33287912      1.72354346      0.12467141
C      -1.22742706     -0.65219032      0.63363721
C      -2.27319731     -1.26792933     -0.30906874
H       3.45119047      0.71072208      0.03549445
H       3.71545610     -1.01574483      0.28490220
H       2.73290308     -0.09111603      1.42921377
H       2.02457379     -0.70518608     -1.48859756
H       1.28152188     -1.45745356     -0.10345497
H       1.06795999      1.53988452     -0.81486714
H      -2.31919517      1.56455037     -0.01708244
H      -1.00747388      2.47942986     -0.45988422
H      -0.49032486     -1.41028301      0.88986799
H      -1.71147853     -0.35947565      1.57004989
H      -1.80883244     -1.60579682     -1.23633949
H      -3.05677627     -0.55476973     -0.57372304
H      -2.75926345     -2.12497458      0.15983151
