13
b3lypvtz=-213747.6839192
C      -1.71426897      0.78774163      0.37172629
C      -0.50828592      0.34491703     -0.40335992
N      -1.86844479     -0.01361389     -0.82811110
C       0.31599676     -0.72193256      0.21793823
O      -0.16468279     -1.75146549      0.65531617
C       1.80454461     -0.52335366      0.30834955
N       2.35890951      0.50823835     -0.17192055
H      -1.87943974      0.31962770      1.33449853
H      -2.01948921      1.82297818      0.28944891
H       0.01451676      1.06386402     -1.01547806
H      -2.02841565     -0.98312259     -0.56100238
H       2.31998099     -1.34538520      0.81339912
H       3.36907842      0.49150650     -0.03039852
