16
b3lypvtz=-181156.20106226
C       2.43093657      0.03894631     -0.09689961
C       0.94047162      0.10379370      0.00393969
C       0.22963756      1.24130548      0.00620345
C      -1.21838923      1.23595851      0.10528427
C      -1.85917244      0.06014631     -0.03995466
N      -1.16325470     -1.11099700     -0.23878953
C       0.21950455     -1.21055745      0.22108010
H       2.86914520      1.03271605     -0.18706590
H       2.74922424     -0.55379759     -0.96116352
H       2.86791004     -0.44413670      0.78565155
H       0.74190426      2.19172617     -0.09325172
H      -1.77423529      2.15525261      0.20217758
H      -2.93736914     -0.01796184     -0.08221617
H      -1.69732434     -1.96161986     -0.20067744
H       0.71280797     -2.01163624     -0.33653975
H       0.27924713     -1.49408646      1.29094266
