13
b3lypvtz=-239460.55686274
O      -0.78918611      1.63228899      0.01711620
C      -1.01538672      0.32684416     -0.42159378
C      -1.21511695     -0.77837741      0.59363668
C       0.07427835     -0.66509342     -0.15695126
O       1.18382664     -0.24556998      0.61699562
C       2.25100538      0.19965176     -0.07353767
O       2.36134312      0.22594743     -1.26499861
H      -1.61576648      1.99241161      0.35289376
H      -1.52361323      0.24147357     -1.37724704
H      -1.88178719     -1.59951740      0.37029940
H      -1.17652711     -0.47507879      1.63103632
H       0.32868847     -1.37660233     -0.92881950
H       3.01844183      0.52162182      0.64126987
