12
b3lypvtz=-226220.34835401
N       3.53673074      1.37069171      0.19358624
C       2.45309328      0.98924804      0.22397552
C       1.06856106      0.52417958      0.31237988
O       0.74668164     -0.13406763     -0.90691051
C      -0.50839173     -0.65482279     -1.05581730
C      -1.55933973     -0.67010888     -0.23821879
O      -1.59422755     -0.11871462      1.02496178
H       0.41476075      1.38137142      0.48558297
H       0.97274855     -0.15088431      1.16529617
H      -0.60581303     -1.12219003     -2.02380687
H      -2.46173314     -1.15279094     -0.58785274
H      -2.46287084     -0.26181155      1.40682363
