10
b3lypvtz=-199756.37833475307
C       1.66372994     -0.28601797      0.14198955
N       0.40178741     -0.61739938      0.10148289
C      -0.72246605      0.15695347     -0.06561884
C      -1.96842205     -0.49068866     -0.06698486
N      -2.97870369     -1.05609622     -0.06320536
C      -0.56280918      1.54130858     -0.22445025
N      -0.35742105      2.67349075     -0.34947472
H       2.39025201     -1.06637703      0.28428651
H       1.94389353      0.74894841      0.03322156
H       0.19015914     -1.60412192      0.20875353
