17
b3lypvtz=-240988.09634145
C       2.94114184     -0.60193701     -0.19688996
C       2.05734227      0.51622458      0.33794064
O       0.75993512      0.54516358     -0.24831232
C      -0.13010746     -0.45892696      0.20971273
C      -1.50322665     -0.10789516     -0.33981673
O      -2.40691065     -1.02443125      0.20338697
O      -1.88538638      1.19906761      0.03881931
H       2.55318638     -1.58756372      0.06170128
H       3.94293560     -0.51845365      0.22894953
H       3.02334888     -0.53754222     -1.28246536
H       1.96514725      0.44562504      1.42897342
H       2.49858085      1.48568039      0.10396429
H      -0.18343105     -0.46412608      1.30492519
H       0.15942113     -1.45513212     -0.13766292
H      -1.49072069     -0.17638650     -1.43788776
H      -3.28746901     -0.79903121     -0.11358666
H      -1.11101044      1.76210069     -0.08975667
