18
b3lypvtz=-205212.27464749
C      -1.90734393      1.02708702     -0.53062897
C      -1.24130057      0.01030420      0.00680513
C      -1.87832358     -1.33029646      0.26057760
C       0.20636137      0.14414036      0.42235064
O       0.61556868      1.49730291      0.41456016
C       1.15255005     -0.66705969     -0.48318382
N       2.54065907     -0.37373942     -0.10063485
H      -2.94604181      0.92357153     -0.81845789
H      -1.43299532      1.98519393     -0.68267989
H      -1.40357113     -2.12729318     -0.31819062
H      -1.79277130     -1.61381898      1.31382781
H      -2.93544392     -1.31498950     -0.00112763
H       0.29626123     -0.26168282      1.44557162
H       1.58257030      1.46178707      0.35047202
H       1.00648662     -0.32696693     -1.50970671
H       0.90219559     -1.73204010     -0.44069904
H       3.18373588     -0.59480548     -0.84901974
H       2.82131778     -0.91589747      0.70790520
