17
b3lypvtz=-194382.11865768
C      -2.60992322     -0.23581362      0.52821239
C      -1.68847377      0.41902568     -0.51258975
C      -0.22909678      0.23876647     -0.23011251
C       0.68377637      1.16663335      0.03575607
C       2.03015837      0.54380429      0.23798484
O       1.81512688     -0.86204562      0.07446031
C       0.44255315     -1.11064928     -0.22940850
H      -3.65713678     -0.06612333      0.27420087
H      -2.43163510      0.17760187      1.52182059
H      -2.45336027     -1.31400184      0.58235146
H      -1.91610368     -0.00374321     -1.49748754
H      -1.91046845      1.48600027     -0.57602031
H       0.50970713      2.23226305      0.09388465
H       2.77024535      0.89194908     -0.49440273
H       2.44358504      0.73687190      1.23603854
H       0.02169947     -1.79268256      0.51948828
H       0.35953530     -1.60751851     -1.20611165
