14
b3lypvtz=-203674.20411654
N      -3.35221987     -0.34220015     -0.35562009
C      -2.30936012      0.04244026     -0.06370026
C      -0.99973534      0.57466593      0.31432340
O      -0.03012937     -0.44784398      0.19688893
C       1.26187711      0.00287793      0.51041103
C       2.07143976      0.69275170     -0.55262796
C       2.38224069     -0.72970502     -0.13585794
H      -1.06032474      0.95051434      1.34359710
H      -0.76412847      1.42492052     -0.33670442
H       1.37637673      0.32866766      1.54085844
H       2.74634993      1.48490203     -0.25966236
H       1.60348525      0.82352475     -1.51855735
H       2.10659549     -1.51401308     -0.82613340
H       3.27122597     -0.92356887      0.44709389
