17
b3lypvtz=-215261.09656578
C       3.21051381     -0.62989870     -0.30108197
C       1.97090835     -0.21040981      0.46312223
O       1.11722386      0.49664498     -0.42312226
C      -0.05157226      1.04278603      0.17942345
C      -1.16225840      0.04710281      0.33008105
N      -2.26629746      0.23152206     -0.27318588
N      -3.24024184     -0.72401645     -0.17501395
H       3.89359457     -1.17505047      0.35231608
H       3.73017221      0.24342523     -0.69581220
H       2.94330600     -1.27557239     -1.13786080
H       1.46400980     -1.09380853      0.87265301
H       2.23874952      0.43480551      1.31180245
H      -0.39842351      1.84386083     -0.47143758
H       0.20963615      1.47609243      1.15547070
H      -0.99412354     -0.83716707      0.95484798
H      -3.21126010     -1.29326330      0.66677278
H      -4.14988417     -0.31931116     -0.33096310
