13
b3lypvtz=-237083.49957634
C      -0.77830079     -0.89270506     -0.00393423
C      -0.81095779      0.48916779      0.66931683
O       0.46011340      1.07198820      0.30870291
C       1.31029611      0.10156190     -0.16255384
N       2.49579150      0.27394469     -0.55755363
N       0.64789013     -1.11079176     -0.11808914
O      -1.85784549      1.31167042      0.29476319
H      -1.26996124     -1.65052619      0.60486503
H      -1.29246509     -0.84017222     -0.97374533
H      -0.85953807      0.42150011      1.75615537
H       2.77689098      1.24353635     -0.45437966
H       1.02097730     -1.84236404     -0.69969935
H      -1.84289097      1.42318981     -0.66384812
