16
b3lypvtz=-204432.94855609
C      -2.68673064      0.12945161     -0.45074644
C      -1.66987380      0.63322645      0.57076570
N      -0.54465966     -0.28122072      0.67031261
C       0.61252027      0.15473206      0.41934915
C       1.79800002     -0.72691992      0.48004022
C       2.92828542     -0.52407837     -0.44008346
O       3.01684185     -0.09940386      0.91460156
H      -3.01119657     -0.88064726     -0.20061926
H      -3.56173700      0.78076359     -0.47139948
H      -2.25319488      0.10764390     -1.45184520
H      -1.34704694      1.65324303      0.31739143
H      -2.14273667      0.67264550      1.55588626
H       0.81521919      1.20200349      0.15162210
H       1.61763969     -1.71861949      0.88003113
H       2.88374907      0.27339535     -1.17585954
H       3.54492064     -1.37621537     -0.70724832
