12
b3lypvtz=-249541.37324262
C      -1.55281561     -0.17029998      0.18282907
O      -2.44163594      0.53741316      0.96603338
O      -0.23165401      0.39645972      0.36644642
C       0.76587557     -0.19183125     -0.31145102
N       0.61408885     -1.19020601     -1.07260200
C       2.08446078      0.50137815     -0.03405179
O       3.11082082      0.13943014     -0.54318371
H      -1.54170479     -1.20225469      0.52777014
H      -1.78191461     -0.13908306     -0.88489387
H      -2.57711638      1.41200473      0.58656535
H       1.51867104     -1.44818825     -1.46650421
H       2.03292429      1.35517732      0.66440140
