17
b3lypvtz=-194365.33931163
O       3.40266818     -0.65870979      0.14452347
C       2.45896264      0.41420680      0.20972464
C       1.04391692     -0.07301672      0.24289022
C       0.11431798      0.27665822     -0.64355189
C      -1.30725681     -0.14190840     -0.65903070
C      -2.34493979      0.62959616      0.13473310
C      -1.98672555     -0.77917606      0.51958690
H       3.17336115     -1.20357476     -0.61531203
H       2.59834351      1.11481255     -0.62214635
H       2.70578135      0.94560008      1.13162292
H       0.80703535     -0.76720662      1.04322340
H       0.39978722      0.95579516     -1.44507235
H      -1.65263794     -0.47177920     -1.63292771
H      -3.30549633      0.81440756     -0.32603344
H      -1.98493702      1.42782120      0.76893622
H      -1.41681192     -0.92112905      1.42648886
H      -2.70546892     -1.56229712      0.32234473
