13
b3lypvtz=-211338.82393184
N       2.38162286     -1.55266199     -0.07919369
C       2.01009985     -0.47227528      0.05170766
C       1.54629693      0.90367714      0.20062898
C       0.13990832      1.13885860     -0.37952500
N      -0.88052551      0.39564551      0.31684926
N      -1.78368943     -0.27935205     -0.40080948
N      -2.77832060     -0.64307536      0.25960478
H       2.25601950      1.56628115     -0.29993214
H       1.56538125      1.16491392      1.26123706
H       0.10141315      0.82147322     -1.41952496
H      -0.05963750      2.21518079     -0.35095540
H      -1.17092288      0.65864452      1.25477430
H      -3.36277796     -1.17386116     -0.38796437
