14
b3lypvtz=-203675.24191053
O      -1.32778364      1.71828826      0.36259755
C      -0.44278182      0.63816236      0.32725852
C      -0.84388412     -0.60075608      1.06114624
C      -0.69225125     -0.65847869     -0.45375533
N       0.56595830     -1.00224951     -1.05804387
C       1.53740487     -0.12670688     -0.57712202
C       1.01972813      0.86910219      0.15783592
H      -1.16665573      2.25844894     -0.41981816
H      -0.12313697     -1.08515899      1.70613586
H      -1.87270031     -0.63691156      1.39193182
H      -1.58148934     -0.81582314     -1.04787321
H       0.80287485     -1.97323725     -1.18586285
H       2.57241763     -0.29482735     -0.83455470
H       1.55239939      1.71034769      0.57002423
