12
b3lypvtz=-179578.94536335
C       3.82609344      0.68956968      1.15203588
C       2.72624658      0.44188178      0.72622387
C       1.48193141      0.16137851      0.24512693
C       0.38352497     -0.08714708     -0.18994109
C      -0.95533854     -0.38319402     -0.67468896
C      -1.98200077     -0.45974066      0.44676518
N      -3.10264183      0.11808148      0.49232679
H       4.79421213      0.90800127      1.52801136
H      -0.94248462     -1.35090922     -1.19111119
H      -1.26885909      0.36397277     -1.40932426
H      -1.70092007     -1.10099094      1.28357559
H      -3.25976361      0.69909642     -0.33450012
