15
b3lypvtz=-214523.55171177
C      -0.65044153      1.46331118     -0.19550107
N      -0.34214635      0.04302670     -0.04237504
C      -1.46987820     -0.85449877     -0.21711559
C       0.91682788     -0.47894877     -0.18201311
N       1.23779899     -1.69534012     -0.45531186
C       2.15487130      0.35308249      0.09695783
O       2.20892458      1.47640803      0.52786471
H      -1.00459918      1.68187643     -1.20943437
H       0.22360803      2.06428988      0.01716385
H      -1.43917950      1.73808716      0.50624359
H      -1.61072315     -1.15689423     -1.26265995
H      -1.34281846     -1.75341788      0.38775003
H      -2.37422708     -0.34865265      0.11528271
H       0.43430210     -2.29151343     -0.63447205
H       3.05768060     -0.24081605     -0.12200037
