16
b3lypvtz=-202028.91143083
C      -2.35516781     -0.94215946      0.02443715
C      -0.86346214     -1.01591712     -0.01403564
C      -0.00998185      0.03423214     -0.05058492
N      -0.58419286      1.33186106     -0.00119993
N       0.25105346      2.25836128      0.04575479
N       1.35797697     -0.03974406     -0.14300965
C       2.07763791     -1.26902000      0.07855238
H      -2.70935654      0.08458121      0.01739205
H      -2.74654916     -1.43772137      0.91846214
H      -2.79060328     -1.46663654     -0.83213514
H      -0.43301534     -2.00995131     -0.02345710
H      -0.27910549      3.13629606      0.08662677
H       1.81488344      0.83040220      0.08165031
H       1.85341845     -2.00189302     -0.70148369
H       3.14628540     -1.06507702      0.04091608
H       1.84729585     -1.73225706      1.04745239
