17
b3lypvtz=-191985.11528612
C      -2.10429764      0.46131327     -0.07689368
N      -1.03937147     -0.32996220     -0.68370755
C       0.26187854     -0.35344811     -0.00353168
C       0.21550670     -0.83042471      1.46661090
C       1.19837468     -1.25841693     -0.82335050
C       0.80804006      1.02202876     -0.02662801
N       1.24973479      2.08406605     -0.01793746
H      -1.79595594      1.50593871     -0.02344587
H      -2.40482236      0.14244378      0.92967337
H      -2.98085672      0.41161760     -0.72225844
H      -1.34089940     -1.28444430     -0.83407612
H      -0.41855245     -0.18871773      2.07578558
H      -0.18045145     -1.84696716      1.50073388
H       1.21257215     -0.83261097      1.90695361
H       0.81971860     -2.28227730     -0.80186136
H       1.23780972     -0.92124495     -1.85719397
H       2.20478018     -1.25815081     -0.40784370
