17
b3lypvtz=-171023.34876674
C      -1.91994202      0.25395444      0.24601933
C      -1.26514676     -0.62243720     -0.82489029
C      -0.44832715      0.25623246      0.04971804
C       0.56207965      1.37912734     -0.25094577
C       1.66336131      0.27768568     -0.21178190
C       0.73112502     -0.02406865      0.99965769
C       0.74494352      1.50645643      1.29111039
H      -2.33206066     -0.24350989      1.11494267
H      -2.49458993      1.10754126     -0.09087235
H      -1.41325527     -0.34018656     -1.85967947
H      -1.24996145     -1.69155691     -0.65407136
H       0.45813544      2.18630331     -0.97439355
H       1.65910629     -0.44715478     -1.02485138
H       2.67248586      0.61355567      0.02879663
H       0.82233429     -0.83618954      1.71931394
H      -0.09911000      1.90511502      1.85252757
H       1.69332187      1.92373195      1.63089981
