11
b3lypvtz=-212936.40133052802
C      -1.67904771     -0.39166224      0.40386543
C      -0.37629431     -0.16128915      0.22657398
C       0.84933892      0.01057701      0.07892117
C       2.16683348      0.18546400     -0.07522496
N       3.03836017     -0.83532462      0.32461276
O       4.22337337     -0.57657336      0.14251190
N      -2.68627468      0.45215174      0.08526043
H      -1.99488566     -1.33430420      0.83803521
H       2.59559624      1.08931394     -0.49815373
H      -2.49718016      1.35635475     -0.30978840
H      -3.63981967      0.20529212      0.27254125
