16
b3lypvtz=-181142.31484863
C      -3.22836327     -0.76999645     -0.09377392
C      -2.66146735      0.42889050      0.06391114
C      -1.23766966      0.73842592     -0.02485254
C      -0.21644048     -0.12638232      0.09231926
C       1.17078080      0.28140571     -0.02559320
N       2.12917876     -0.54631485      0.08367182
C       3.48101337     -0.05115497     -0.04867714
H      -2.65192717     -1.65538450     -0.33250981
H      -4.29814868     -0.89641893      0.00252405
H      -3.30787666      1.27876108      0.25977528
H      -0.99670583      1.78565147     -0.18534859
H      -0.38503676     -1.17809309      0.29348607
H       1.35044319      1.35075953     -0.21510522
H       3.54078531      1.02938991     -0.23717730
H       3.98022268     -0.58040438     -0.86354534
H       4.03945474     -0.28282463      0.86120644
