12
b3lypvtz=-226258.56829944
O       2.50420175     -0.59175953      1.03618886
C       1.95971392     -0.09545142      0.07984135
N       0.59346300      0.00553965     -0.04507661
C      -0.50642497     -0.41052546      0.84546094
C      -1.49514961      0.14996842     -0.21399384
C      -0.25676111      0.52813334     -1.03722000
O      -0.02487945      1.04895842     -2.08740378
H       2.48980061      0.32565127     -0.78686154
H      -0.49539099      0.10551152      1.80307550
H      -0.54128640     -1.48628553      1.00314349
H      -2.13631954     -0.58398677     -0.69756182
H      -2.09086720      1.00424608      0.10050745
