13
b3lypvtz=-239454.63161081
C      -0.68298346     -0.73650074     -0.65180233
C      -0.73614773      0.61677316     -0.02863095
C       0.52693930     -0.22174598      0.11335726
C       1.72471006      0.20098094     -0.65222733
O       1.69090862      0.58982415     -1.79562228
O       0.80778700     -0.75062907      1.37040467
O      -1.40951496      0.81701238      1.18301081
H      -1.21282611     -1.54137134     -0.16031563
H      -0.59736094     -0.78999469     -1.72833773
H      -0.67695908      1.48681413     -0.67192157
H       2.66870982      0.13987960     -0.07767364
H       0.21364670     -0.31905621      2.00042024
H      -2.31690924      0.50801368      1.09933846
