17
b3lypvtz=-215286.27287966
C      -0.87483551      1.77220595     -0.21603090
C      -0.19090267      0.42864830      0.02840812
O      -0.14450361      0.19658500      1.42604561
C      -0.98231940     -0.67780956     -0.66922444
N      -1.53904803     -1.66663009     -0.11689255
C       1.25279200      0.43737189     -0.52218873
N       1.97685536     -0.72237074      0.00534203
H      -1.87801495      1.76333555      0.20927133
H      -0.30524000      2.57065324      0.25999413
H      -0.95558313      1.98526890     -1.28342578
H       0.64626420     -0.35359692      1.56161646
H      -1.05901925     -0.57976835     -1.75678396
H      -1.38899903     -1.60339555      0.89560862
H       1.23180540      0.49490522     -1.61699113
H       1.74725099      1.33713039     -0.15338733
H       1.74716951     -1.56996069     -0.49924167
H       2.97775012     -0.59288554     -0.04699680
