16
b3lypvtz=-202048.42730805
N      -3.60679635     -0.20932266     -0.35033075
C      -2.51194132      0.33321691     -0.02939529
N      -1.28796798     -0.35574384      0.08670199
C      -0.26843436      0.33031719      0.41589018
C       1.09098639     -0.26196310      0.57079583
C       2.10335081      0.33116217     -0.41914853
N       3.44273633     -0.18286629     -0.13034000
H      -3.45534989     -1.20889871     -0.50529907
H      -2.49426147      1.41001239      0.17500607
H      -0.35123708      1.41278456      0.59398654
H       1.02157086     -1.34328051      0.44545842
H       1.45890683     -0.05916786      1.58167707
H       1.75789417      0.13033388     -1.44237479
H       2.13013576      1.41743301     -0.30148018
H       4.12902399      0.26215033     -0.72792223
H       3.48943630     -1.17632648     -0.32784326
