14
b3lypvtz=-201296.24406991
C       0.62479457     -1.09922195     -0.06049868
C      -0.75965629     -0.60937429      0.30286168
N      -1.48480414     -1.34879168      1.03406772
C      -1.13178409      0.73721162     -0.27601004
N      -0.07433879      1.74507003     -0.21701418
C       1.12518821      1.31901122     -0.18024496
N       1.55121424      0.02037015     -0.18643288
H       0.95861490     -1.79545178      0.70741046
H       0.56183321     -1.65298852     -1.00574333
H      -2.40054557     -0.92163087      1.18621601
H      -1.42240699      0.59546954     -1.32651934
H      -2.01490340      1.12154973      0.23789405
H       1.93464399      2.04567607     -0.15175323
H       2.53215019     -0.15689928     -0.06423328
