12
b3lypvtz=-223845.75621348
C      -0.08450186     -0.83239939     -0.01686703
C       0.91399406      0.17406082      0.07700113
N       0.40031538      1.39147742      0.13971176
N      -0.95550226      1.18295350      0.10213582
C      -1.26394687     -0.12033460      0.00272250
O      -2.56654582     -0.48156642     -0.05322342
N       2.28946661     -0.02564934      0.17052318
H       0.04137128     -1.89997044     -0.06146992
H      -1.58959301      1.95935709      0.14036999
H      -2.62502544     -1.44039243     -0.10100191
H       2.80147899      0.83632979      0.04629517
H       2.63848894     -0.74386602     -0.44619726
