12
b3lypvtz=-223830.5336494
C      -2.48829700      0.39152791      0.13242201
N      -1.44999996     -0.57402727     -0.19640873
C      -0.13184068     -0.26358866     -0.06399926
N       0.81195030     -1.17330228      0.04355191
O       1.99568745     -0.38976997      0.07711125
C       1.59990521      0.87336996      0.00459386
N       0.32328742      1.04174995     -0.08145909
H      -3.43803585      0.02545312     -0.25349318
H      -2.26280028      1.34075805     -0.34660339
H      -2.58753402      0.56467148      1.20919668
H      -1.66086014     -1.54286009     -0.02013883
H       2.36439954      1.63414879      0.02350478
