13
b3lypvtz=-213749.33217324
C       1.81433213      1.50068308      0.19245685
N       1.07979406      0.66418005     -0.40065544
C      -0.06277334      0.12926680      0.30415959
C      -0.01409188     -1.40091945      0.34679431
N       0.84003019     -2.14700905     -0.20223397
C      -1.34897952      0.51157629     -0.43310770
O      -2.41722163      0.59108481      0.10914552
H       2.67599264      1.91311930     -0.32674305
H       1.63497920      1.84348971      1.21806387
H      -0.16148917      0.49259338      1.33668655
H      -0.82898773     -1.84976418      0.91601778
H       1.52903615     -1.58966429     -0.71330438
H      -1.21793009      0.68130454     -1.51842793
