18
b3lypvtz=-202816.96231356
C       2.07978842     -0.52388087     -0.64370787
N       1.35151345     -0.35127106      0.61042643
C       0.13427769      0.45812037      0.56864014
C       0.27098186      1.79363404     -0.18800841
C      -1.04667204     -0.40300184      0.07723764
N      -1.03550508     -1.67115351     -0.01157142
N      -2.17888488      0.30022798     -0.29597175
H       2.92072399     -1.19551340     -0.46990812
H       2.47181209      0.40407775     -1.07957643
H       1.43037054     -0.99382929     -1.38255795
H       1.96882749     -0.00623473      1.33143796
H      -0.09507825      0.69666597      1.61313825
H       0.36144744      1.64459388     -1.26331342
H      -0.58636298      2.44552215     -0.02047677
H       1.15597381      2.32786860      0.16234468
H      -0.11812493     -2.00927670      0.27112353
H      -2.99670626     -0.28158643     -0.39407854
H      -2.35147835      1.18691509      0.14562606
