14
b3lypvtz=-224578.44129527
N      -0.61692467     -0.83578431     -1.86908258
C      -0.55656085     -0.09505075     -0.83722754
C       0.61864364      0.11483157      0.02597244
N       1.71339080     -0.50039651     -0.21238187
N       2.79570320     -0.25082965      0.54374989
C      -1.81415965      0.64983748     -0.44662348
O      -2.87641992      0.38487637     -1.31689664
H       0.27513259     -1.29231696     -2.05463588
H       0.52152760      0.81066306      0.86503227
H       3.47686304     -0.99049004      0.50321666
H       2.64478402      0.13938166      1.46893023
H      -2.07943018      0.37116572      0.58375742
H      -1.58857627      1.72621797     -0.42671779
H      -2.51397334     -0.23210562     -1.97699313
