16
b3lypvtz=-204439.56140152
C       2.80536480     -0.41868533      0.21816733
N       1.64861695     -0.14988183     -0.63306353
C       0.40268335     -0.16430253      0.07511679
C      -0.16444106      1.01457433      0.79099171
C      -0.79516014      0.55452372     -0.52388956
C      -2.10575335     -0.12516797     -0.48401782
O      -2.52291266     -0.74852207      0.46487948
H       2.91352548      0.27786652      1.06165875
H       2.72560443     -1.42734381      0.62718390
H       3.71213217     -0.37784847     -0.38494244
H       1.76974424      0.72958835     -1.11989283
H       0.16916673     -1.13211001      0.50326607
H       0.38236801      1.94754172      0.75638816
H      -0.76189596      0.84502604      1.67657783
H      -0.60417283      1.15191440     -1.40643160
H      -2.71202117     -0.03954805     -1.40822324
