16
b3lypvtz=-181102.73915016
C      -1.41682422      1.29118201     -0.17171419
C      -0.59198599      0.07364860      0.11718958
C      -1.08701600     -1.30940476     -0.06096987
N      -0.03849151     -0.83918458     -0.98997732
C       1.22066516     -0.90819100     -0.21901454
C       0.73119695      0.06377915      0.84242036
C       1.83686895      0.44406833     -0.11696199
H      -2.14563083      1.09022888     -0.95716587
H      -0.78986760      2.12419615     -0.49450476
H      -1.96127136      1.60556650      0.72261252
H      -0.83407166     -2.07775892      0.66174719
H      -2.05014035     -1.43397496     -0.54022475
H       1.76648326     -1.83693878     -0.12262027
H       0.87186335      0.06667359      1.91510651
H       2.82865736      0.47667643      0.31622774
H       1.65956448      1.16943336     -0.90215029
