14
b3lypvtz=-222171.34190496
C       2.43669845      0.62679661     -0.58299039
N       1.75408488      0.10069310     -1.51929204
N       0.48370546     -0.35193659     -1.25436094
N       0.19300873     -0.71300958      0.10118118
C      -0.92104557     -0.20628547      0.51301504
N      -1.27446029     -0.36961146      1.84054654
N      -1.82744440      0.49019765     -0.25208269
H       2.09467407      0.69884927      0.44517337
H       3.41207727      1.01376698     -0.84898305
H       0.32693442     -1.15196499     -1.85464138
H      -2.25105969     -0.56640075      1.99953526
H      -0.66200015     -1.01353267      2.31851390
H      -2.33256840      1.21503102      0.23335279
H      -1.43260478      0.77401268     -1.13896759
