14
b3lypvtz=-224602.73236271
C      -2.06180218     -1.18067268     -0.00727658
N      -0.66271447     -0.79563755      0.02967664
C      -0.38676098      0.44061437      0.01094745
N      -1.25893208      1.50096435     -0.07289298
O       0.89150030      0.93091377      0.02856156
C       2.03409745      0.13193437     -0.00089338
N       2.15607246     -1.11005767     -0.02749198
H      -2.56989195     -0.81554921     -0.90789146
H      -2.61953834     -0.81499586      0.86576935
H      -2.13264672     -2.26646795     -0.00248006
H      -0.88435535      2.40515061      0.16026118
H      -2.20755610      1.33597823      0.21500226
H       2.88284659      0.80931068      0.00318012
H       1.24240034     -1.56530446     -0.02237712
