14
b3lypvtz=-201270.64625792
C      -1.36865707     -1.63553781     -0.43890103
C      -0.77930418     -0.52602379      0.03687360
C      -1.49595590      0.24362046      1.08755949
N      -1.15655563      1.31334629      1.67577324
C       0.52391448     -0.13195936     -0.49282461
N       1.16880246      0.89484418     -0.08827398
N       2.34392805      1.20697750     -0.69833444
H      -2.33190650     -1.95893306     -0.06833105
H      -0.90816691     -2.24452762     -1.20591616
H      -2.45191475     -0.20718278      1.36799799
H      -0.25189280      1.63478012      1.32940528
H       0.93749668     -0.77453658     -1.27890726
H       2.93438414      1.75429471     -0.09241555
H       2.83592793      0.43083774     -1.13360554
