16
b3lypvtz=-204432.67610402
C      -0.81597986     -1.23394015      0.22173209
N      -1.59803811      0.00000033      0.03392831
C      -0.81597930      1.23394053      0.22173157
C       0.66680368      1.00524364     -0.11097176
C       1.29075618     -0.00000016      0.86835223
C       0.66680323     -1.00524407     -0.11097136
O       0.73895775     -0.00000045     -1.17288387
H      -0.90193860     -1.59231624      1.25363246
H      -1.24250598     -2.00410416     -0.42202121
H      -1.92152658      0.00000020     -0.92232306
H      -0.90193790      1.59231712      1.25363178
H      -1.24250506      2.00410445     -0.42202208
H       1.20757639      1.91788280     -0.35995193
H       0.94217597      0.00000012      1.90130769
H       2.37809068     -0.00000041      0.83187829
H       1.20757551     -1.91788358     -0.35995116
