15
b3lypvtz=-191204.55970913
C      -1.62615459     -0.46562442     -0.27879051
N      -1.60264114      0.95042559     -0.69273213
C      -0.56159521      1.50765784     -0.22847041
C       0.36338591      0.65307186      0.59817188
C       1.61704000      0.09702004     -0.12403739
N       0.81677745     -1.07322226     -0.56396201
C      -0.27591537     -0.74514748      0.39153548
H      -1.77695275     -1.09651778     -1.15641744
H      -2.47664376     -0.61683104      0.39216777
H      -0.36880140      2.56049604     -0.42251112
H       0.51814997      1.04460772      1.60292576
H       2.42014990     -0.14079844      0.57999916
H       2.02951550      0.69242029     -0.94149782
H       1.25892946     -1.97180191     -0.42234770
H      -0.33534396     -1.39585605      1.26596646
