20
b3lypvtz=-182668.53535263
C       3.08630215     -0.55303747      0.12250635
C       1.78925548      0.19738725      0.19568129
C       0.65788418     -0.23203119     -0.38033624
N      -0.56222399      0.41770186     -0.45584340
C      -0.70995420      1.68768413      0.21887726
C      -1.75793831     -0.40020482     -0.60796452
C      -2.27389834     -1.05221683      0.67929258
H       2.96789659     -1.50193189     -0.40434311
H       3.48250514     -0.77506591      1.11818743
H       3.86119731      0.01677358     -0.40070830
H       1.80121472      1.13735320      0.73422559
H       0.65967456     -1.18846521     -0.89555264
H       0.06192344      2.37992836     -0.12289725
H      -1.68285738      2.11410925     -0.02455188
H      -0.62844970      1.61318459      1.31267971
H      -1.53471095     -1.17574395     -1.34424785
H      -2.54095004      0.22697513     -1.04200946
H      -2.55310418     -0.30354815      1.42237276
H      -3.15709292     -1.65974607      0.47110922
H      -1.51305456     -1.69787186      1.12045347
