12
b3lypvtz=-202909.54506134
C      -1.82493319     -1.00378307      0.11802228
C      -1.11941587      0.31768900      0.23849377
N      -1.78184401      1.40847246      0.25948393
C       0.31896122      0.27687642      0.32631968
C       1.52255891      0.21537048      0.39792861
C       2.96411419      0.19894219      0.48697234
O       3.62754416     -0.81031629      0.46580615
H      -1.48498812     -1.53654141     -0.77225837
H      -1.59530117     -1.63749666      0.97688328
H      -2.89771855     -0.83732051      0.06008548
H      -1.16025552      2.21292599      0.34473269
H       3.43127796      1.19518141      0.57794775
