11
b3lypvtz=-264615.94114018
N      -1.49723247      1.39491186     -0.14420634
C      -1.00077443      0.11151101      0.00875684
O      -1.94190871     -0.84454846      0.13796802
C       0.30988513     -0.24437652     -0.01457486
F       0.60600632     -1.55645302     -0.09452835
C       1.42440131      0.66944293      0.07509497
O       2.59316056      0.34958579      0.02323392
H      -0.81606786      2.10271160     -0.36848827
H      -2.12531970      1.69141911      0.59246259
H      -2.76502383     -0.52200780     -0.25144949
H       1.13621568      1.73221449      0.22046197
