18
b3lypvtz=-205191.92148438
C       2.43769648     -1.00685892     -0.36257233
N       1.47206780      0.05891554     -0.58347782
C       1.18711207      0.92010583      0.56051008
C       0.18464641     -0.07232838      0.08489383
C      -1.04990400      0.33106186     -0.68357775
C      -2.25761233      0.58749991      0.21305510
O      -2.66926939     -0.56815675      0.94318540
H       3.44556684     -0.62041305     -0.52229113
H       2.26308968     -1.80779968     -1.08274399
H       2.38840458     -1.43510785      0.64970145
H       1.69892056      0.70926526      1.49467968
H       1.06180505      1.97363348      0.33775516
H       0.05765676     -0.94393471      0.72139160
H      -1.30018939     -0.45089805     -1.41057745
H      -0.83283408      1.23167698     -1.26397046
H      -2.01250366      1.33370240      0.97061839
H      -3.08750179      0.98460131     -0.38247328
H      -2.98715159     -1.22496520      0.31589351
