15
b3lypvtz=-214495.5973507
C       3.58908336     -0.31815827      0.02628198
C       2.28167574      0.41331245      0.00674189
C       1.10376248     -0.19797019     -0.02254390
O      -0.06881195      0.50713339     -0.05665311
N      -1.18750150     -0.36344882     -0.00506930
C      -2.26240011      0.32136469      0.01647654
N      -3.49636095     -0.28180558     -0.04482070
H       4.17650084     -0.06749678      0.91440747
H       4.20584445     -0.06348644     -0.84060625
H       3.44084490     -1.39912831      0.02090221
H       2.30448071      1.49767621      0.01359908
H       0.97500861     -1.27257873     -0.02830633
H      -2.25351731      1.40815750      0.02938550
H      -3.49404789     -1.27950050      0.10626579
H      -4.24480939      0.19974740      0.42555413
