14
b3lypvtz=-180380.45422214
C      -2.79819442     -0.09604463      0.23697169
C      -1.71087755     -0.74059307     -0.16861052
C      -0.42461939     -0.11540466     -0.56198151
C      -0.03927292      1.27348613     -0.17707225
C       0.65426810      0.10812935      0.50276479
C       2.02297725     -0.19087523      0.20076633
N       3.12079697     -0.43443454     -0.05125280
H      -2.83818695      0.98422624      0.29863967
H      -3.69524915     -0.63218979      0.51525995
H      -1.73097910     -1.82447443     -0.23144687
H      -0.02467438     -0.46719763     -1.50552795
H      -0.71157599      1.84949302      0.44156740
H       0.54102844      1.85315820     -0.87946661
H       0.36419309     -0.09772996      1.52416167
