16
b3lypvtz=-227743.27608989
N       2.97052433     -0.43904381      0.60103536
C       2.43377049      0.24572367     -0.31296280
C       0.97629296      0.60582737     -0.44309471
O       0.24166910      0.02594584      0.61038577
C      -1.13030284      0.41389738      0.68618676
C      -1.99599875     -0.38807386     -0.27171942
O      -1.90855594     -1.77939420     -0.01680939
H       2.26060823     -0.73049328      1.27739731
H       3.06533629      0.63622717     -1.11484776
H       0.87934654      1.70177138     -0.42909851
H       0.62076799      0.27185541     -1.42793435
H      -1.23547089      1.48917587      0.49867228
H      -1.43433878      0.20637619      1.71236134
H      -3.04073306     -0.10316564     -0.13500074
H      -1.72921490     -0.16128398     -1.31228087
H      -0.97360076     -1.99524551      0.07740973
