16
b3lypvtz=-181135.5766519
C       3.49884207      0.49419427     -0.06689831
C       2.38729583     -0.19383889     -0.33554637
C       1.09567520      0.05780945      0.27843105
C      -0.01212748     -0.63873863      0.01130660
C      -1.34287277     -0.40128802      0.65878229
N      -2.39200036     -0.28432493     -0.34933553
C      -3.10634215      0.75313739     -0.34295801
H       3.50201142      1.30645779      0.65025803
H       4.43737186      0.26781272     -0.55353807
H       2.42578302     -1.00195985     -1.06022580
H       1.05232971      0.86907556      1.00090630
H       0.01645313     -1.44059568     -0.71975376
H      -1.59993096     -1.27277527      1.27300656
H      -1.29783407      0.47240263      1.32378213
H      -3.89603492      0.86230258     -1.08338885
H      -2.98132052      1.57119587      0.37798873
