16
b3lypvtz=-202020.83579806
C       3.14714731     -0.11793728      0.00000326
C       1.68339666     -0.43271850      0.00000195
C       0.73839429      0.50581827     -0.00001038
N      -0.65332162      0.31395813     -0.00001727
C      -1.57680791      1.43923813      0.00000185
N      -1.11749492     -0.93522191     -0.00001801
N      -2.37133387     -1.02203246     -0.00000931
H       3.32970643      0.95792605     -0.00000194
H       3.64589806     -0.54164019     -0.87666318
H       3.64589417     -0.54163124      0.87667618
H       1.39252447     -1.47497170      0.00001021
H       1.00500890      1.55446883     -0.00001993
H      -1.00042610      2.35964818     -0.00000173
H      -2.22133852      1.40247836      0.87924585
H      -2.22136243      1.40248621     -0.87922457
H      -2.56778091     -2.02395887     -0.00001498
