17
b3lypvtz=-215298.26348756
C      -0.80457724     -1.38123930     -0.01327958
C      -0.29630833      0.06374468      0.11132620
C      -0.72821955      0.89086281     -1.10979923
N      -0.92928770      0.65553497      1.29182095
C       1.24809523      0.03828047      0.16713036
N       2.06325590     -0.40591248     -0.69374454
O       1.74134620      0.57450074      1.31075583
H      -0.51328896     -1.97147532      0.85765570
H      -0.40488642     -1.87366068     -0.89917703
H      -1.89229841     -1.37361515     -0.07370174
H      -0.32591721      0.48220309     -2.03614717
H      -0.38265962      1.92261047     -1.02111485
H      -1.81595993      0.89800471     -1.16978422
H      -0.65261511      0.15178741      2.12672260
H      -0.60399713      1.60653705      1.42291283
H       1.59242472     -0.78422238     -1.50893354
H       2.70509357      0.50615890      1.23735744
