21
b3lypvtz=-172603.01160454
C       1.74674854     -1.52372413     -0.08776278
C       0.96099253     -0.62160137     -0.66263429
C       0.12933531      0.45314315      0.00306698
C       0.62853161      1.81945637     -0.51502972
C       0.24768180      0.43059567      1.53199365
C      -1.35176090      0.29217148     -0.43847728
C      -2.04817262     -0.99992515     -0.01191312
H       1.86971439     -1.59067653      0.98528307
H       2.30423659     -2.23630541     -0.68182445
H       0.89259476     -0.62071561     -1.74882692
H       0.02970571      2.63113104     -0.09594777
H       0.55795658      1.87880473     -1.60305852
H       1.67023982      1.98564979     -0.23669104
H      -0.38515730      1.20509006      1.96983151
H       1.27400572      0.62364600      1.84808974
H      -0.05594200     -0.52682157      1.95492433
H      -1.38870836      0.37322246     -1.52923891
H      -1.91132853      1.14994319     -0.05287622
H      -3.05932436     -1.03930741     -0.42060997
H      -1.51095282     -1.88046099     -0.36692275
H      -2.13325347     -1.07836577      1.07268246
