17
b3lypvtz=-191991.00886138
C      -2.65351373     -0.44882636      0.00313660
C      -1.17969204     -0.71654763      0.03533893
C      -0.24880674      0.25672553     -0.00194311
N      -0.56200947      1.60640220     -0.10089674
C       1.20944562     -0.03748216      0.01628118
C       1.67376587     -1.47260165     -0.05752940
N       2.00074503      0.96253771      0.09001751
H      -3.03502616     -0.10262014      0.97194227
H      -2.89997380      0.32498590     -0.72978999
H      -3.21524102     -1.34606342     -0.25540487
H      -0.85646563     -1.74384940      0.09741599
H       0.23375324      2.19978224      0.08794061
H      -1.41068236      1.89963756      0.35326664
H       1.31826263     -2.04721676      0.79909375
H       2.76210766     -1.51254230     -0.06774564
H       1.29945488     -1.96302032     -0.95683498
H       2.97551701      0.66917701      0.09043026
