12
b3lypvtz=-247084.99351902
C      -0.85961630     -0.57483602     -0.02494589
C      -2.25722280     -0.13316789      0.31991065
O      -2.52682044      0.93624908      0.80183302
N       0.07842016      0.50728816      0.13563443
N       1.38101764      0.12553012      0.25007913
N       2.08984372      0.94516482      0.84064686
O       3.41081643      0.54069416      0.86310859
H      -0.86270842     -0.95233601     -1.05389868
H      -0.63632636     -1.44103381      0.61619895
H      -3.04059747     -0.88659172      0.11025566
H      -0.21891759      1.23984755      0.77400785
H       3.44211143     -0.30680843      0.38197027
