19
b3lypvtz=-192743.62587171
C      -2.30057577      0.58849095      0.99614237
C      -1.45586552      0.82365132     -0.25955605
N      -0.32861897     -0.08126404     -0.41110614
C      -0.59073488     -1.46828963     -0.74723312
C       0.89880041      0.26837974      0.07901217
N       1.86879647     -0.54081378      0.21804296
C       3.13201611     -0.00177512      0.67070570
H      -3.12285925      1.30544788      1.03995235
H      -2.73179313     -0.41328155      1.00518998
H      -1.69730581      0.70535237      1.89789952
H      -2.08691838      0.73545548     -1.14855445
H      -1.06573800      1.84318184     -0.25238454
H      -0.88235798     -2.06602757      0.12326839
H       0.31467138     -1.90773584     -1.15877702
H      -1.39138904     -1.51386792     -1.48703166
H       0.97571399      1.33668643      0.32196585
H       3.09945079      1.07599518      0.89185668
H       3.45886327     -0.52342949      1.57417704
H       3.90574429     -0.16625623     -0.08457003
