19
b3lypvtz=-192737.78077157
C       3.07173547      0.28567351      0.39439745
N       1.92861369      0.16696932     -0.49903148
C       0.65610565      0.03668917      0.20049480
C      -0.49808227     -0.10484826     -0.79859629
C      -1.84855562     -0.26954153     -0.14969739
C      -2.52930294     -1.42012341     -0.19754648
N      -2.28194900      0.84928263      0.56874766
H       2.98806786      1.10422270      1.12750644
H       3.19493532     -0.64385664      0.95433222
H       3.97961267      0.44163123     -0.18910676
H       1.89501500      0.96983962     -1.11640406
H       0.45823603      0.87402907      0.88765062
H       0.70063023     -0.86449006      0.81791662
H      -0.51620825      0.78314124     -1.44488874
H      -0.29944755     -0.95781502     -1.44527591
H      -2.11701662     -2.28414151     -0.69521607
H      -3.49597667     -1.53181491      0.27722374
H      -3.25202432      0.82628321      0.84455292
H      -2.03438873      1.73886963      0.16213783
