14
b3lypvtz=-201262.32135329
C       2.02675704     -0.22877136      0.42794990
N       0.78759612     -0.12264818      0.65984284
C      -0.02809350      0.62091747     -0.22386550
C       0.27515149      1.88492126     -0.56083517
C      -1.25778027     -0.01957867     -0.71806194
N      -1.90536741     -1.03947683     -0.28126173
N      -1.55545838     -1.67800065      0.85055216
H       2.65464733     -0.76417327      1.13547041
H       2.50299393      0.19476842     -0.46064379
H      -0.38566561      2.45855353     -1.19479784
H       1.14692992      2.38258062     -0.16116811
H      -1.69911044      0.45669497     -1.58641315
H      -0.61648937     -1.54341891      1.20951451
H      -1.94611087     -2.60236839      0.90361740
