10
b3lypvtz=-248794.98568825
C      -0.65504995     -1.20716508      0.26386429
C      -0.96472720      0.10651077      0.26375817
N       0.17975762      0.87516132      0.12429300
C       1.12125071     -0.01051218      0.04701135
O       0.73841054     -1.27952674      0.11903530
O       2.42815648      0.19043495     -0.09568936
O      -2.17781575      0.67807439      0.37722278
H      -1.19160679     -2.13035231      0.34332001
H       2.57261180      1.14404804     -0.13483763
H      -2.05098746      1.63332684      0.34000713
