18
b3lypvtz=-181856.05982452
C       1.19850555      0.55240358     -0.46232886
C       0.04605695     -0.10091791     -1.19417887
C      -1.44686488      0.24949446     -0.96782731
C      -1.13489297      1.53705168     -1.75118627
N      -0.38082038      0.47207778     -2.57303640
C      -1.64815649     -0.40012204     -2.36076076
C      -2.85001969     -0.16261370     -3.24939436
H       1.36028568      0.04166779      0.48933631
H       1.05507948      1.60991197     -0.24951485
H       2.11193388      0.44944905     -1.05143626
H       0.24470335     -1.17214838     -1.28168372
H      -2.04874163      0.12385298     -0.06157528
H      -0.49020100      2.28328311     -1.29655281
H      -1.93756853      2.02746666     -2.29380480
H      -1.38183214     -1.45935317     -2.40184857
H      -3.24661427      0.84994885     -3.20912671
H      -2.58726283     -0.37919977     -4.28672940
H      -3.65339008     -0.84475294     -2.96315108
