13
b3lypvtz=-213714.35862924
C       3.58962141     -0.17414920     -0.00000152
C       2.38346282      0.39898523     -0.00000224
C       1.12730700     -0.32073655     -0.00000057
C      -0.05517067      0.29623293     -0.00000158
O      -1.22021208     -0.42506504      0.00000041
N      -2.34101707      0.42399017     -0.00000246
N      -3.35443039     -0.25616515     -0.00000058
H       3.70600421     -1.25099355      0.00000085
H       4.49441030      0.41704369     -0.00000333
H       2.31823760      1.48331418     -0.00000424
H       1.15276032     -1.40460351      0.00000158
H      -0.18811015      1.37009892     -0.00000366
H      -4.12605831      0.41787489     -0.00000268
