19
b3lypvtz=-192717.57541832
C       2.60131085     -0.98132737      0.09438225
N       2.04626050      0.36546112      0.06309913
C       0.71815206      0.44634037     -0.47511127
C      -0.23466361      1.48627685      0.02318293
C      -0.51569122      0.02325809      0.29412455
N      -1.59958683     -0.58745023     -0.41846292
C      -2.90234801     -0.42670030      0.21634295
H       1.99218349     -1.70728181      0.65378389
H       3.59759429     -0.95476664      0.53660115
H       2.70460865     -1.35458122     -0.92675127
H       2.08872384      0.79299609      0.97846312
H       0.67589013      0.24097963     -1.53901891
H      -0.86084953      1.98462141     -0.70317050
H       0.07706728      2.10517678      0.85513744
H      -0.34073454     -0.29641005      1.32460324
H      -1.40611483     -1.56824036     -0.57876825
H      -3.66296430     -0.93776850     -0.37506129
H      -3.16146040      0.63280859      0.24925827
H      -2.95014183     -0.81255744      1.24625350
