15
b3lypvtz=-216896.4513212
O       3.62293474      0.53878837     -0.35531073
C       2.43225413     -0.07499902     -0.62943741
C       1.23545235      0.31019038     -0.19822837
O       0.09439667     -0.33045212     -0.62884847
C      -0.83587287     -0.59092673      0.39215714
C      -1.79300727      0.49553946      0.79637483
C      -2.25851498     -0.68505766     -0.03079170
H       3.47054697      1.30500009      0.20899143
H       2.55282972     -0.93050261     -1.27861285
H       1.08904065      1.16153159      0.46265222
H      -0.46772084     -1.26659185      1.15762359
H      -2.09530698      0.56073274      1.83247713
H      -1.70339023      1.44359431      0.28452845
H      -2.88435858     -1.43533366      0.43116146
H      -2.45938347     -0.50151330     -1.07673670
