14
b3lypvtz=-180369.01223949
C      -1.74090109     -0.70811784     -0.01466941
C      -0.48413813     -1.18240645      0.03651317
C       0.44636095     -0.02920872      0.01881649
C      -0.42370053      1.17126155     -0.00572234
C      -1.70415629      0.76105597     -0.03622218
C       1.77577800     -0.03857766     -0.68789147
N       1.73543111     -0.09175809      0.76049241
H      -2.64603104     -1.29682781     -0.03258380
H      -0.16395475     -2.21122876      0.08392490
H      -0.05749410      2.18724065     -0.02036457
H      -2.57696001      1.39554227     -0.07784529
H       2.09287835     -0.95185344     -1.17486866
H       2.07773201      0.87656426     -1.18333851
H       1.93125152      0.82083106      1.15958327
