14
b3lypvtz=-201296.29039894
N       2.68715233      0.25371441      0.00000024
C       1.66850273     -0.50582976     -0.00000082
N       0.32225193     -0.19071493     -0.00000350
C      -0.26497471      1.06789892     -0.00000072
N      -1.53374877      1.11625828      0.00000211
C      -2.02073931     -0.27541438     -0.00000005
C      -0.76269428     -1.18739633      0.00000207
H       2.44920326      1.24406718     -0.00000003
H       1.83152777     -1.58287620     -0.00000107
H       0.36139735      1.94973429     -0.00000028
H      -2.64743265     -0.43701387     -0.87782020
H      -2.64743736     -0.43701581      0.87781627
H      -0.70261131     -1.82203196     -0.88489834
H      -0.70260896     -1.82202382      0.88490831
