14
b3lypvtz=-180390.70379246
C      -1.73117662     -0.42706552     -0.38960857
C      -1.46847596      0.63841452      0.63552501
C      -0.14574798      0.80465786      0.77861807
C       0.56367114     -0.11924140     -0.12267702
C      -0.35368938     -0.83931812     -0.80589662
C       2.01279541     -0.25457891     -0.27213369
N       2.93242390      0.38401699      0.33267354
H      -2.30408104     -1.26660729      0.02222023
H      -2.32092638     -0.05289632     -1.23509351
H      -2.24485684      1.17274529      1.16157621
H       0.33378673      1.50422321      1.44769911
H      -0.14232529     -1.59983162     -1.54302624
H       2.32904759     -1.00454454     -1.00043317
H       2.53955473      1.06002583      0.99055666
