13
b3lypvtz=-213758.39381792
C      -1.73972631      1.42270352     -0.24707088
N      -1.44636198      0.50303171      0.56642847
C      -0.67336804     -0.60436999      0.17667163
N      -1.08044293     -1.58176499     -0.52389664
C       0.73932097     -0.59415973      0.72264564
C       1.70075321     -0.10062022     -0.34594054
O       2.40492938      0.86642452     -0.22826306
H      -2.36658786      2.24574398      0.08687226
H      -1.39549728      1.44115259     -1.28523094
H      -2.04306406     -1.44204643     -0.83095170
H       1.01164113     -1.62380043      0.96303149
H       0.82584508      0.03700005      1.60369222
H       1.70307068     -0.70785757     -1.27191695
