18
b3lypvtz=-181862.2727017
C      -2.47731386     -0.02329452     -0.21276128
C      -1.21189213     -0.85306440      0.01659170
C       0.02724148     -0.19742671     -0.56212009
C       1.44782817     -0.66842077     -0.13826054
C       2.00261945      0.68222708     -0.65652520
C       0.73256907      0.97834235      0.18028304
N       1.18081236     -0.03714059      1.22287734
H      -3.35970866     -0.53385766      0.17614684
H      -2.41066997      0.94550765      0.28657143
H      -2.64585386      0.16412203     -1.27619404
H      -1.33460014     -1.83498017     -0.45210046
H      -1.06159171     -1.02543712      1.08177251
H      -0.07483009     -0.03110104     -1.63683277
H       1.88260896     -1.66305244     -0.23155075
H       2.94558497      1.00699843     -0.21480191
H       1.96992551      0.87499560     -1.73106557
H       0.31966359      1.94528264      0.46467535
H       2.06760686      0.27029963      1.62824092
