19
b3lypvtz=-195137.94577431
C       1.64694716     -0.87651140     -1.05934148
C       0.97535246     -0.22246720     -0.11534452
C       1.44480317     -0.15678130      1.31182859
C      -0.32359020      0.49389835     -0.44830652
C      -0.24500779      2.00321059     -0.25004567
O      -1.40415610      0.03768493      0.36920203
C      -1.85047422     -1.27009342      0.06894587
H       1.28786439     -0.92306475     -2.08034153
H       2.58218961     -1.38057683     -0.84878579
H       2.31963580     -0.78650125      1.46810771
H       0.65449527     -0.47710906      1.99338960
H       1.70851056      0.86461330      1.59731622
H      -0.56450125      0.28573693     -1.49922991
H      -0.07922385      2.24826108      0.79877639
H      -1.18269872      2.46426258     -0.55982031
H       0.56789399      2.42557832     -0.84136620
H      -2.18007846     -1.34867855     -0.97469875
H      -2.69682846     -1.47427672      0.72256889
H      -1.07523035     -2.02382459      0.24232039
