13
b3lypvtz=-213731.19918885
C      -3.14240089     -0.06890070     -0.10870936
C      -1.91937804      0.24590263      0.31868927
N      -0.78261733     -0.17512120     -0.36267253
C       0.35960582      0.16153246      0.10519030
C       1.57728318     -0.24776573     -0.56190588
N       2.69715365      0.10889985     -0.05945194
O       3.76618433     -0.35908724     -0.81046359
H      -3.27446471     -0.66347492     -1.00218404
H      -4.02178051      0.26114274      0.42512880
H      -1.78210691      0.84609181      1.22045088
H       0.47914516      0.76256743      1.01307739
H       1.50962879     -0.84460274     -1.46805084
H       4.53374747     -0.02718441     -0.33210854
