16
b3lypvtz=-202015.03095892
C      -0.05519667      1.92194718      0.34196159
C      -0.27880828      0.61906034      0.08564984
N      -1.67555567      0.30414159      0.02846704
N      -1.97184749     -0.82545268     -0.39945366
N       0.69153669     -0.33246784     -0.20993571
C       0.69994594     -1.58111061      0.55296136
C       2.02862004      0.17098219     -0.46568797
H      -0.90567336      2.57532756      0.45219875
H       0.93325340      2.34643583      0.41063349
H      -2.99995506     -0.87045607     -0.39648359
H       1.12848787     -1.43966999      1.55531961
H      -0.30364278     -1.97790760      0.64204139
H       1.30876650     -2.31327165      0.02169731
H       1.98966641      0.98160735     -1.19246439
H       2.63224098     -0.63675891     -0.87971076
H       2.53445446      0.53999829      0.43941972
