14
b3lypvtz=-232001.10684849
C       2.17993273      0.77866949      0.00000041
C       1.20347493     -0.13261976     -0.00000069
O       1.40953980     -1.48510247     -0.00000199
C      -0.22120227      0.20500374     -0.00000055
F      -0.44658329      1.54324506      0.00000220
C      -1.24384965     -0.64448229     -0.00000150
C      -2.68674761     -0.25959531     -0.00000010
H       3.22133563      0.48534666      0.00000050
H       1.94730549      1.82996470      0.00000132
H       2.35717645     -1.65397369     -0.00000304
H      -0.98771506     -1.69449456     -0.00000329
H      -2.81876189      0.82012162      0.00000285
H      -3.19625335     -0.66855598      0.87667664
H      -3.19625393     -0.66855120     -0.87667874
