14
b3lypvtz=-203709.35616815
N       1.78961095     -1.45721163     -0.27947008
C       0.83183016     -0.63188986     -0.26223479
C       0.86703778      0.88268900     -0.20834552
C      -0.49723692      1.29883742      0.34411088
O      -0.82586558      2.42229422      0.61991264
C      -1.36736620      0.05141375      0.49725712
C      -0.62307601     -1.06941949     -0.24285855
H       2.69213501     -0.97953218     -0.28263225
H       0.96620027      1.30073293     -1.21603895
H       1.68330756      1.28997115      0.38866787
H      -1.43718991     -0.15681560      1.56926834
H      -2.37949390      0.24557875      0.14580532
H      -0.72472078     -2.05586606      0.20318343
H      -0.97517241     -1.14088239     -1.27662548
