14
b3lypvtz=-203638.36070009
C      -1.57931722      0.04361350     -0.48486320
C      -0.14443043     -0.16984985     -0.92359838
C       0.57575337     -0.94852251      0.21807964
C      -0.00535073      0.21323615      1.07580268
C       0.73457966      0.84873769     -0.13734477
N       1.83669559     -0.17663062     -0.07260120
O      -1.40462563      0.30806709      0.92996768
H      -2.21242639     -0.83660782     -0.61779176
H      -2.05903676      0.90139724     -0.96166305
H       0.09004419     -0.39537724     -1.95955092
H       0.56859598     -2.02001461      0.40869269
H       0.31210459      0.38791083      2.10101330
H       0.91493186      1.89736592     -0.36598445
H       2.37248192     -0.05332578      0.78984176
