13
b3lypvtz=-242077.45094325
C       2.22296108     -0.20627667     -0.00005602
C       0.73835534     -0.47590025     -0.00007178
N       0.22378899     -1.66171157     -0.00016346
C      -0.18507091      0.63580153      0.00006730
F       0.33809282      1.89550171      0.00017600
C      -1.53066310      0.50423285      0.00007887
O      -2.15454591     -0.66482664     -0.00002142
H       2.67905425     -0.66045886     -0.88119685
H       2.44829140      0.85621423     -0.00079816
H       2.67876673     -0.65908733      0.88194703
H       0.92281322     -2.39823731     -0.00027342
H      -2.17372028      1.37624367      0.00016741
H      -1.42914663     -1.36477335     -0.00009750
