16
b3lypvtz=-204452.26253213
C       1.51144574      1.38037611      0.34230966
C       0.38955789      0.65478823     -0.40509967
N      -0.93478292      1.17370286     -0.03902396
C      -1.89245475      0.05494969      0.08508174
C      -1.00312725     -1.14573991      0.21320355
C       0.25238483     -0.80934151     -0.06096349
O       1.31855978     -1.65395397     -0.08995139
H       2.50007739      0.98964707      0.07819632
H       1.36835294      1.29055216      1.41910288
H       1.51099728      2.44008441      0.08421853
H       0.59271466      0.74093630     -1.48745339
H      -1.25601788      1.88465352     -0.67930788
H      -2.55793709     -0.03037402     -0.78786686
H      -2.53737418      0.19837068      0.95871500
H      -1.34995925     -2.13412876      0.47161832
H       2.13005482     -1.14458085     -0.17749236
