13
b3lypvtz=-213766.59310771
C       0.08031072      1.46316392      0.45926984
C      -0.25427700      0.01425443      0.25211510
C      -1.67705525     -0.29188575     -0.13184588
N      -2.15493160     -1.44698736     -0.31484146
N       0.54109671     -0.96675164      0.38035401
C       1.89885647     -0.89095075      0.65614031
O       2.73693957     -0.45347817     -0.09254647
H      -0.55028617      1.87920958      1.24926295
H       1.12638395      1.61632812      0.70657062
H      -0.14795332      2.02332758     -0.45086410
H      -2.33136795      0.57154498     -0.25796809
H      -1.42100395     -2.14671450     -0.15710419
H       2.15318783     -1.37116045      1.61725736
