18
b3lypvtz=-181926.38105876
C      -2.72784409      0.07816363     -0.52953344
C      -1.56910877     -0.85058114     -0.16220174
C      -0.66016964     -0.32583238      0.95742624
C       0.09778296      0.97182828      0.65452962
C       1.09351808      0.88313304     -0.51972362
C       2.15056839     -0.10142482     -0.30294190
N       2.97712838     -0.87982486     -0.11617258
H      -3.37638988     -0.38294418     -1.27581930
H      -3.34091288      0.30634960      0.34558203
H      -2.38189218      1.02685214     -0.94429536
H      -0.97631169     -1.06936514     -1.05515709
H      -1.97455932     -1.81320884      0.15893215
H      -1.26617510     -0.15870216      1.85280895
H       0.06259419     -1.10211759      1.22155648
H      -0.60155649      1.77875191      0.42725192
H       0.64485515      1.27985458      1.54753199
H       0.57930578      0.62838921     -1.44867495
H       1.56563611      1.85464273     -0.68060639
