15
b3lypvtz=-193606.68479419
C       2.72446197     -0.27500445     -0.39418089
C       1.75576395      0.26244673      0.06596565
C       0.58016726      0.92485636      0.61016267
C      -0.75592307      0.63942003     -0.10903763
O      -1.57052968      1.52559657     -0.19883643
C      -1.01488595     -0.75909540     -0.62482725
C      -1.03745550     -1.81360850      0.49194513
H       3.58498205     -0.74619852     -0.79915128
H       0.70826512      2.00772069      0.61261502
H       0.44224069      0.62478503      1.65546999
H      -0.23148835     -1.01274044     -1.34307855
H      -1.96815277     -0.73226209     -1.15063112
H      -1.80085769     -1.58194267      1.23609618
H      -1.26573573     -2.79423341      0.07465545
H      -0.07407830     -1.88713793      0.99665307
