10
b3lypvtz=-248791.09130798
C      -0.38673080      1.13097005     -0.50506009
C      -1.02789022     -0.01635352     -0.22223682
O      -0.11766023     -0.92225854      0.28303999
C       1.04877397     -0.22707642      0.26670946
N       0.97378066      0.97004576     -0.17660833
O       2.10227238     -0.90874451      0.72042439
O      -2.30140573     -0.42093800     -0.33091499
H      -0.77993596      2.04445876     -0.91007989
H       2.86532179     -0.31987591      0.66211544
H      -2.37652587     -1.33022766     -0.02000966
