20
b3lypvtz=-182664.59318752
C      -1.53510416      1.26904843     -0.26477970
C      -0.74982945      0.00764343      0.04106506
C      -1.53441670     -1.24031034     -0.31705615
N       0.00000528      0.03682294      1.31763351
C       0.74983009      0.00764362      0.04105921
C       1.53441482     -1.24030981     -0.31706860
C       1.53510171      1.26904919     -0.26479134
H      -1.69776197      1.37718916     -1.34016493
H      -1.03703963      2.16167810      0.10198561
H      -2.51521515      1.21940454      0.21585543
H      -1.76360777     -1.26412997     -1.38524104
H      -2.48669961     -1.24269518      0.21949032
H      -1.01406881     -2.16214051     -0.06653789
H       0.00000689     -0.88715344      1.74055539
H       1.76359983     -1.26412751     -1.38525484
H       2.48670081     -1.24269598      0.21947243
H       1.01406802     -2.16214025     -0.06654917
H       1.03704420      2.16167712      0.10198781
H       2.51522049      1.21940130      0.21582747
H       1.69774212      1.37719618     -1.34017857
