14
b3lypvtz=-250294.04823483
C       2.04188095     -0.07483612     -0.25726302
N       0.77920975     -0.23465826      0.47536588
C      -0.37506130     -0.39311906     -0.30372849
O      -0.56489100     -1.65263909     -0.87128648
C      -1.32499199      0.51946818     -0.51346695
O      -1.24165108      1.78974309     -0.03533173
O      -2.49886220      0.27315915     -1.16613717
H       2.07723987      0.84071743     -0.85954099
H       2.17661286     -0.92632874     -0.92265399
H       2.87057819     -0.06526012      0.45102401
H       0.65264834      0.49782152      1.15897892
H      -0.39036552     -2.30568217     -0.18077641
H      -1.75789165      2.36095176     -0.61654280
H      -2.44425522     -0.62923758     -1.50854077
