15
b3lypvtz=-214489.68393987
C      -3.00813685      0.48763808     -0.04613965
N      -1.84418231      0.25125264     -0.49070528
N      -1.23857670     -0.89795684     -0.01446182
C      -0.04914762     -0.76106310      0.41702509
C       0.73563177      0.51810366      0.53782219
O       2.12972219      0.28598471      0.54431414
C       2.65987590      0.00114947     -0.73881128
H      -3.53313633      1.35245837     -0.43411406
H      -3.49409772     -0.13964799      0.70092325
H       0.45095228     -1.66873391      0.74592715
H       0.50090380      1.00225363      1.48984355
H       0.43502131      1.20720300     -0.26097207
H       2.22211681     -0.90412048     -1.17453056
H       2.49273085      0.83526336     -1.43033896
H       3.73024961     -0.15028562     -0.61446270
