16
b3lypvtz=-204430.41250792
C      -2.80142780     -0.45194693     -0.01465505
C      -1.84806838      0.47704915     -0.16076673
N      -0.49947843      0.25344882     -0.25912577
C       0.21305809     -0.95412501      0.16224430
C       1.45633094     -0.09132994      0.45653423
O       2.48738545     -0.35005402     -0.47449515
C       0.57313160      1.15717230      0.17021155
H      -3.84012501     -0.16189030      0.00978482
H      -2.57432434     -1.50717834      0.05127957
H      -2.11603317      1.52592422     -0.24157223
H      -0.22523648     -1.43439651      1.04469274
H       0.35841803     -1.69832126     -0.62293400
H       1.82637213     -0.15515155      1.48153666
H       3.23921658      0.21580172     -0.27367753
H       0.95455067      1.81468158     -0.61504416
H       0.33351312      1.74803807      1.06144975
