16
b3lypvtz=-204454.13235349
C       2.32376067     -0.96162063      0.15604833
C       1.24874395      0.08520598     -0.05054449
O       1.47036345      1.11323747     -0.66407527
C      -0.08950190     -0.21595149      0.50247900
C      -1.02948626      0.94159600      0.81172636
C      -1.32132635      0.12877094     -0.38139700
N      -2.48953389     -0.69032187     -0.44330748
H       2.50942412     -1.10363228      1.22378635
H       3.24231929     -0.65195345     -0.33600999
H       1.99837907     -1.92629491     -0.24105202
H      -0.18814852     -1.10602306      1.10988257
H      -0.61684826      1.92963980      0.66371078
H      -1.66937540      0.82613931      1.67732049
H      -1.04546292      0.56879800     -1.33140120
H      -2.34460816     -1.51970578     -1.00535189
H      -2.80909286     -0.97639203      0.47284948
