16
b3lypvtz=-181122.9257095
C      -2.64682908     -0.71827554     -0.55806047
C      -1.77496340     -0.35233709      0.18057340
C      -0.71496688      0.09297803      1.07930365
C       0.59959887      0.52181397      0.37297759
C       0.37407717      1.69811828     -0.58648840
C       1.23693545     -0.64104796     -0.34987997
N       2.39323564     -1.12514829     -0.17033012
H      -3.42067235     -1.04614882     -1.20624683
H      -1.08174647      0.94041742      1.66559549
H      -0.49441698     -0.70555281      1.79255021
H       1.28740678      0.83742504      1.16312101
H      -0.06668354      2.54572973     -0.05862684
H       1.31661398      2.02429882     -1.02648594
H      -0.30166362      1.41995807     -1.39568283
H       0.61799805     -1.10338495     -1.12274075
H       2.88759639     -0.62260889      0.57196883
