11
b3lypvtz=-213006.30724134
C      -1.42176921     -0.00698751      0.12568788
C      -0.22375239     -0.92503008     -0.04778138
O      -0.18225730     -2.12375651     -0.13910265
C       0.97639264      0.01049994     -0.08592923
N       2.19936736     -0.28964630     -0.21581743
C       0.38356549      1.35006420      0.06414805
N      -0.88884247      1.36446679      0.17827723
H      -2.12824130     -0.10441229     -0.70162846
H      -1.97323450     -0.23160080      1.04136281
H       2.29241272     -1.30842741     -0.29813316
H       0.96635897      2.26482995      0.07891634
