14
b3lypvtz=-255284.04772905
O       2.82254758     -0.01652060     -0.78523293
C       1.59465866      0.69591726     -0.77825310
C       0.49498190     -0.09738405     -0.12757275
O      -0.06669531     -1.15178214     -0.92719622
C      -0.89289589     -0.03009374     -0.59414163
C      -2.03415101     -0.27895748      0.34082780
F      -3.15324604     -0.70290910     -0.37208072
H       2.69434176     -0.82096672     -1.29948704
H       1.28979016      0.97840399     -1.79208379
H       1.77822021      1.61011747     -0.21055042
H       0.68437243     -0.38699180      0.90353335
H      -1.12793243      0.61582382     -1.43636920
H      -1.77691471     -1.05521212      1.06297381
H      -2.30707731      0.64055520      0.86563283
