17
b3lypvtz=-191967.50615292
C       2.34302977      0.01949356      0.24163189
C       1.07087522      0.52376664     -0.43802343
C      -0.18857674      0.16415792      0.33602512
C      -1.54837836      0.42760864     -0.31610671
N      -2.14170884      1.36953340     -0.89811885
C      -1.95070166     -1.00949157     -0.04957201
N      -0.54093094     -1.28866161      0.35321444
H       3.22932074      0.27304622     -0.34136412
H       2.31473963     -1.06564409      0.35096330
H       2.46219903      0.45716674      1.23573607
H       0.99197791      0.10027463     -1.44180695
H       1.11176587      1.61202211     -0.55076035
H      -0.14840759      0.60984922      1.33984747
H      -1.56662957      2.21355692     -0.92427914
H      -2.69064235     -1.09634422      0.75303035
H      -2.29620630     -1.58375350     -0.91069913
H      -0.45172584     -1.72658099      1.26028205
