15
b3lypvtz=-216928.02404622
C      -2.72049774      0.06588722     -0.12934578
C      -1.61243884     -0.62853407     -0.34710892
C      -0.33628976     -0.04150546     -0.87809683
C       0.87494385     -0.39267177     -0.03073231
O       1.06023967     -1.50243932      0.41928212
C       1.88782541      0.70249026      0.23290965
O       2.99192660      0.23670775      0.95298829
H      -3.61419333     -0.40698764      0.25531865
H      -2.77798797      1.12996035     -0.32779772
H      -1.58173681     -1.69011289     -0.13139115
H      -0.12417783     -0.45465895     -1.87304846
H      -0.41885238      1.04044124     -0.99592934
H       2.19848035      1.12775738     -0.73134725
H       1.36940253      1.50797322      0.77374669
H       2.80345624     -0.69450733      1.15055237
