10
b3lypvtz=-223077.5017298
N      -2.17594032     -1.18067831      0.48207975
C      -0.96604566     -0.89116317      0.25986125
N      -0.51483375      0.41871829      0.02681731
C       0.70964976      0.67057962     -0.19292538
O       1.15164989      1.91408434     -0.41609569
C       1.78606159     -0.29827377     -0.23729703
N       2.60110931     -1.10990083     -0.26116071
H      -2.74787489     -0.33367140      0.46429122
H      -0.22551272     -1.69250393      0.24600883
H       0.38183677      2.50290916     -0.37137955
