11
b3lypvtz=-218036.55639175
F      -2.26194839      0.00000672     -0.00000458
C      -0.91920404      0.00000325      0.00000247
C      -0.23652094     -1.20214957      0.00000192
C       1.15246566     -1.13851047      0.00000497
N       1.84687229     -0.00000395      0.00000639
C       1.15247159      1.13850615      0.00000536
C      -0.23651470      1.20215249      0.00000257
H      -0.76699592     -2.14331880     -0.00000057
H       1.73226526     -2.05468502      0.00000437
H       1.73227593      2.05467771      0.00000560
H      -0.76698475      2.14332449      0.00000050
