15
b3lypvtz=-216905.89014928
C       1.75362363      0.59637289      0.16442225
C       0.37199117      1.22834280     -0.04807581
C      -0.56512977      0.02885007      0.06889057
C       0.34005393     -1.19114622      0.18906984
O       1.61797248     -0.75988790     -0.26015987
C      -1.93682809      0.07069006      0.57046915
O      -1.67315014     -0.04077841     -0.83506229
H       2.54357285      1.05329320     -0.42803000
H       2.04434425      0.63288826      1.22307672
H       0.14981221      2.01523635      0.67179831
H       0.27861846      1.64269533     -1.05212543
H       0.39636570     -1.52900390      1.23378978
H       0.00182697     -2.01466326     -0.43725011
H      -2.37318358     -0.81185382      1.03051766
H      -2.36477007      1.01631354      0.88971924
