16
b3lypvtz=-204434.35074483
C       2.39662396     -0.18926038      0.00913644
C       1.10224004     -0.14925265     -0.25234491
C       0.05468078     -1.17177073     -0.65286743
C      -0.98797564     -0.28468899      0.08641549
C       0.01550813      0.88383718     -0.00050646
O       0.07079121      1.72857069      1.13026100
N      -2.27332833     -0.08377017     -0.56490685
H       2.91254640      0.67265618      0.41491891
H       2.98590244     -1.08312771     -0.15367641
H      -0.13997075     -1.17676741     -1.72776028
H       0.18972223     -2.19456339     -0.30473068
H      -1.04942548     -0.59559115      1.13664480
H      -0.19253849      1.45362079     -0.91431474
H       0.54612663      2.53194368      0.90035107
H      -2.81288884     -0.94268247     -0.55339663
H      -2.81801427      0.60084653     -0.05066776
