16
b3lypvtz=-181154.7116497
C      -2.40603774     -0.31984004     -0.29657093
C      -0.99271540      0.06339612     -0.02259287
C       0.18870241     -0.86144329     -0.24277646
C       1.38955011     -0.00081894      0.12938292
C       2.68311965     -0.27348494     -0.05617847
N       0.86311064      1.16299372      0.70468087
C      -0.52729173      1.19902552      0.50173629
H      -3.09187651      0.49578466     -0.06435760
H      -2.71154728     -1.18987724      0.29454012
H      -2.55187013     -0.59078635     -1.34722140
H       0.25825924     -1.23128956     -1.26904305
H       0.12687058     -1.74484214      0.40312030
H       2.98854275     -1.20139258     -0.51535937
H       3.46080808      0.41367312      0.24896899
H       1.40657356      2.00935216      0.71721735
H      -1.08419824      2.06964978      0.81445331
