16
b3lypvtz=-181124.58933125
C       2.97371476     -0.01582752     -0.22976099
C       1.82165219     -0.00485129      0.10838395
C       0.42119450      0.02987463      0.49743383
C      -0.39866852     -1.23115747      0.09913531
C      -1.79621438     -0.67523236     -0.30433509
N      -1.79746102      0.77404911     -0.04157271
C      -0.40094611      1.18351936     -0.14331528
H       3.99293451     -0.02794227     -0.52462244
H       0.37041824      0.15370780      1.58361593
H       0.07726628     -1.74422153     -0.73521226
H      -0.45355881     -1.93662013      0.92725174
H      -2.61529326     -1.15422910      0.23066972
H      -1.96653955     -0.84010749     -1.37037945
H      -2.12801927      0.94655376      0.90058817
H      -0.23155097      2.14502931      0.33883951
H      -0.12501858      1.28079521     -1.19665193
