10
b3lypvtz=-199755.17720004
N       2.09984055      1.35057292      0.11331482
C       1.48362296      0.40475823     -0.11041060
C       0.75198624     -0.80544123     -0.37774474
N       0.00002454     -1.47306586      0.69112823
C      -0.75197891     -0.80545660     -0.37772531
C      -1.48363250      0.40472695     -0.11037055
N      -2.09985767      1.35053138      0.11337862
H       1.24641992     -1.48103593     -1.06470239
H       0.00002951     -0.90758751      1.53578713
H      -1.24641665     -1.48106135     -1.06467020
