14
b3lypvtz=-227022.95169599
C       2.55236143     -0.68928382      0.01933666
C       1.23561807      0.06225589     -0.00240255
O       1.24113068      1.30158725      0.01447549
C       0.03617178     -0.73204807     -0.04718926
C      -1.20679756     -0.16490366     -0.00865656
N      -1.43215703      1.17051636     -0.06748779
O      -2.29218054     -0.96867142      0.06842485
H       2.66432876     -1.28092127     -0.89209973
H       3.37453102      0.01779081      0.09361099
H       2.58739266     -1.38414883      0.86076968
H       0.09847552     -1.80768087     -0.09809693
H      -0.55793501      1.70233280     -0.02171315
H      -2.22286410      1.53540350      0.44024497
H      -3.07766369     -0.48144168     -0.20767864
