18
b3lypvtz=-181927.31274717
C       2.57142884     -0.64803148     -0.22226085
C       1.08383193     -0.80114697      0.09613396
C       0.38061049      0.50486731      0.49729961
C       0.36977108      1.55284171     -0.61839430
C      -1.05262354      0.22697100      1.01211227
C      -1.94351027     -0.33576249     -0.00027724
N      -2.63635629     -0.77740174     -0.80635375
H       3.02256207     -1.62049384     -0.42289652
H       2.74038066     -0.02459694     -1.10050080
H       3.11213945     -0.19983092      0.61463409
H       0.56675858     -1.23564381     -0.76394511
H       0.97191038     -1.51968750      0.91352619
H       0.91651983      0.92377071      1.35533099
H      -0.13325238      2.46601877     -0.29497079
H       1.38175792      1.82505225     -0.91518228
H      -0.15124658      1.17903529     -1.50206978
H      -1.01991834     -0.46737610      1.85477415
H      -1.50369282      1.15191174      1.37853018
