20
b3lypvtz=-182672.77294921
C      -1.89364703     -1.73244432      0.00137652
C      -1.82681745     -0.24146743     -0.14036032
C      -0.79459516      0.56499873      0.12008417
C      -0.91001420      2.05388596     -0.08495487
C       0.54706222      0.07989575      0.62026202
C       1.57883196     -0.11933876     -0.49759546
N       2.85634330     -0.57185097      0.06360856
H      -2.71057937     -2.02363685      0.66819682
H      -2.10046507     -2.20476174     -0.96366833
H      -0.97385009     -2.16642984      0.38951202
H      -2.74141056      0.22159919     -0.50213473
H      -0.14010830      2.42531471     -0.76765533
H      -1.88194262      2.33144218     -0.49254411
H      -0.77143890      2.58916788      0.85975238
H       0.94629586      0.81254136      1.33091631
H       0.45817945     -0.85868586      1.16616257
H       1.21817375     -0.89509377     -1.17617111
H       1.66087433      0.80312799     -1.08904242
H       3.27048890      0.16027737      0.63003891
H       3.51837497     -0.77167259     -0.67680161
