19
b3lypvtz=-192739.26327525
C       3.02150973     -0.42638697     -0.23030807
N       1.85402033      0.13367379      0.42267376
C       0.72782482     -0.02593645     -0.12683553
C      -0.53784202      0.52441667      0.47295887
C      -1.09055882      1.66989727     -0.38952741
C      -1.58288481     -0.58631099      0.68892238
N      -2.03624006     -1.17655613     -0.57657137
H       2.79340380     -0.95331861     -1.16674767
H       3.51781609     -1.11900407      0.45293856
H       3.73447311      0.37393525     -0.44015967
H       0.61283239     -0.57442979     -1.07153433
H      -0.27322959      0.92243847      1.45483824
H      -2.02178884      2.05692565      0.03118163
H      -0.37723122      2.49268384     -0.44036087
H      -1.28894865      1.34052274     -1.41130933
H      -1.12784629     -1.38234429      1.28162269
H      -2.40148837     -0.17081489      1.29347849
H      -2.69920213     -0.56855094     -1.04116793
H      -2.51660544     -2.05096156     -0.40676044
