12
b3lypvtz=-249581.00499024
N      -1.07150505     -0.47367364     -1.28304906
C      -1.04043042     -0.13411411      0.00929246
O      -2.26550181     -0.14118148      0.57833629
C       0.09627383      0.18789869      0.70837928
C       1.37445454      0.18973569      0.06813618
O       2.39258584      0.53173304      0.90599787
O       1.60655784     -0.07707670     -1.10921700
H      -1.94792857     -0.66800766     -1.73016502
H      -2.18572459      0.11618264      1.50304449
H       0.03002185      0.44278939      1.75464639
H       3.19602621      0.49853348      0.36823520
H      -0.18492967     -0.47271933     -1.77363709
