16
b3lypvtz=-225337.40737116
N       3.42560337     -0.15474483      0.26109695
C       2.12912736     -0.40536818     -0.16832380
N       1.19198421      0.43539307     -0.00793715
N      -0.08861931      0.05979342     -0.42327053
C      -1.12450774      0.84089457      0.23366669
C      -2.49254083      0.33522602     -0.18761216
O      -2.71268283     -1.02442614      0.19927449
H       4.14811345     -0.54069916     -0.32758675
H       3.58883595      0.81655661      0.48651526
H       1.97716162     -1.39795477     -0.60075266
H      -0.26665907     -0.93088846     -0.27981359
H      -1.01223714      1.88634833     -0.06236277
H      -1.04092044      0.80840004      1.33237367
H      -2.57167551      0.34358702     -1.27469204
H      -3.27143665      0.98926456      0.21793801
H      -2.77722843     -1.05866109      1.15904837
