13
b3lypvtz=-262789.24880015
C       2.59062562     -0.16012649     -0.03457553
O       1.25794827     -0.55036712     -0.42457512
C       0.27029540      0.23247873     -0.00324838
O       0.41182681      1.24364668      0.64673404
C      -1.11674571     -0.30201397     -0.38562051
O      -1.51615547     -1.25145003      0.58302263
O      -1.99652647      0.76959797     -0.50014856
H       2.81923233      0.83327252     -0.41557033
H       3.24983114     -0.90209209     -0.47304029
H       2.67959750     -0.15897531      1.05005785
H      -1.08320213     -0.84596082     -1.32728345
H      -1.69424245     -0.78027608      1.40626965
H      -1.63497884      1.49290900      0.03445000
