17
b3lypvtz=-191975.67296282
C      -2.49170091     -1.15291265     -0.02952958
C      -1.18471424     -0.88409776     -0.04890776
C      -0.59066073      0.45277640      0.03443922
N      -1.49998309      1.51870281     -0.06800538
C       0.72395269      0.66605395      0.25484396
C       1.79523212     -0.35047013      0.51960506
N       2.88083492     -0.39024098     -0.47809286
H      -2.85079528     -2.16885852     -0.12033649
H      -3.23761332     -0.38140581      0.10689324
H      -0.48951385     -1.70614688     -0.15198497
H      -2.18572152      1.39991982     -0.80045159
H      -1.05757279      2.42330242     -0.13246125
H       1.06565233      1.69945370      0.26090662
H       2.26491846     -0.14997622      1.48734523
H       1.37846145     -1.35400182      0.59904065
H       2.48191964     -0.47694574     -1.40679529
H       3.38859811      0.48768241     -0.47280681
