19
b3lypvtz=-192729.4567831
C      -1.11720119      1.19960640      0.20965241
C      -0.50246015     -0.12939948     -0.21736932
C       0.93306697     -0.38211711      0.36324948
C       1.46836329      0.11608974     -0.98981845
N       0.12356288     -0.08650581     -1.57832135
N       1.34488617      0.38131686      1.53222622
C      -1.49424648     -1.27395672     -0.06489482
H      -0.40022307      2.01617058      0.13782016
H      -1.46549769      1.16385545      1.24355885
H      -1.97779182      1.42691327     -0.42540794
H       1.09466623     -1.46104334      0.46627161
H       2.25963671     -0.46895750     -1.46273716
H       1.78731364      1.16183112     -0.92486750
H      -0.20225616      0.67287009     -2.16490420
H       1.03794111     -0.07081682      2.38609803
H       2.35684389      0.42526350      1.58052824
H      -2.38528286     -1.09661424     -0.67183750
H      -1.81384943     -1.38243016      0.97510257
H      -1.04747202     -2.21207585     -0.39434935
