17
b3lypvtz=-191922.14232588
C      -0.94503517     -1.03515871      0.52906911
C      -0.07992329      0.17439011      0.09433541
C      -1.04186025      0.22915779     -1.11219690
N      -2.01271947     -0.03505971      0.05465583
C      -1.16650922      1.00707180      0.80793881
C       1.41817583      0.34265972      0.12823448
N       2.07075349     -0.64869996     -0.73383312
H      -0.90539198     -1.94162962     -0.07543861
H      -1.00958577     -1.26575554      1.59341981
H      -0.99832359     -0.58185651     -1.83720467
H      -1.19992783      1.19305165     -1.59699393
H      -1.24772418      0.92948735      1.89280086
H      -1.33422148      2.02959967      0.46768621
H       1.75360998      0.31498517      1.17657749
H       1.66659119      1.33652031     -0.25424927
H       3.06588202     -0.47036995     -0.79095995
H       1.96620970     -1.57839354     -0.34384153
