16
b3lypvtz=-204449.60103855
N      -2.87625199     -0.03960169      0.11299310
C      -1.70705661      0.01914604     -0.36778906
C      -0.39404016     -0.05165057      0.35876655
C       0.52413842     -1.19015120     -0.13461510
C       1.91067749     -0.62847562      0.15857372
O       1.81461654      0.75767574     -0.15238875
C       0.48884668      1.20566895      0.13301030
H      -2.84646900     -0.15080778      1.12968381
H      -1.62115513      0.13987697     -1.45270861
H      -0.58915448     -0.17786796      1.42625284
H       0.40191550     -1.33638881     -1.20990200
H       0.31990757     -2.13616168      0.36535944
H       2.17765790     -0.77290701      1.21422597
H       2.70024022     -1.05555226     -0.45876356
H       0.14572162      1.80112598     -0.71645993
H       0.48615643      1.84572890      1.01990527
