15
b3lypvtz=-214521.39059424
C      -0.68621542     -1.14995306      0.11397693
C       0.59414993     -0.36912779     -0.00515989
C       0.33020489      0.92906725     -0.14651445
C      -1.13495944      1.21338695     -0.14466536
N      -1.73113473     -0.13782163     -0.15189844
O       1.22282728      1.93379155     -0.28264887
N       1.92971446     -0.86951606      0.01526302
H      -0.74144103     -1.96852684     -0.61611355
H      -0.78965336     -1.61250205      1.10835199
H      -1.43334694      1.79042200     -1.02694790
H      -1.41480915      1.80923793      0.73512549
H      -2.49170612     -0.20838557      0.50600550
H       2.09825976      1.51544953     -0.25829817
H       2.14877060     -1.34162884      0.88598904
H       2.09933928     -1.53389337     -0.73246533
