15
b3lypvtz=-216915.82519302
O       1.83014769     -0.20639196     -1.42308629
C       1.35385543      0.10917071     -0.13307225
C       0.46407097     -1.04815460      0.34100375
C      -0.94235125     -0.57822453     -0.01318947
C      -1.57450855      0.48214894      0.86665124
C      -0.81260785      0.87038248     -0.36303882
O       0.52902667      1.26945142     -0.14990411
H       2.28853057      0.56915180     -1.76480463
H       2.18501895      0.34188811      0.53685680
H       0.73458024     -1.96300675     -0.18196428
H       0.58777050     -1.21569579      1.41191217
H      -1.58574092     -1.23435047     -0.58047975
H      -2.65270916      0.57053440      0.84578180
H      -1.11324499      0.69934557      1.82139487
H      -1.29193830      1.33375067     -1.21406102
