14
b3lypvtz=-226978.48726574
C      -0.28194666     -1.16483260      0.20766578
C      -0.85410416      0.28671831      0.28666181
C       0.29466054      0.69847031     -0.62699722
N       0.50134109      1.59129460     -1.48724979
C       1.05648065     -0.59167809     -0.31932691
O       1.98314774     -0.46558780      0.75385587
O      -2.13613210      0.58095383     -0.21138199
H      -0.21652924     -1.72677638      1.13674927
H      -0.80053221     -1.74346355     -0.55522139
H      -0.70389841      0.69680968      1.29035644
H      -0.27308299      2.25973903     -1.50474120
H       1.50392802     -1.08962725     -1.18260453
H       2.69893962      0.11000564      0.46367776
H      -2.77227188      0.55797427      0.50870476
