16
b3lypvtz=-227749.00212639
C       2.29892283     -1.15376239     -1.19904369
N       1.55878711     -0.83823151     -0.22939169
C       0.15886549     -0.53297044     -0.46630712
C      -0.21118806      0.73774876      0.30620595
O       0.19853252      0.61871470      1.66517391
C      -1.71259914      0.99464668      0.32813278
O      -2.41736648     -0.04102211      0.99205785
H       1.94044763     -1.22016633     -2.23298522
H       3.34808096     -1.37808396     -1.02126139
H      -0.07712813     -0.41891704     -1.53254434
H      -0.43880745     -1.35425274     -0.06410662
H       0.28554230      1.59809596     -0.16340680
H       1.03908188      0.14032792      1.65554290
H      -2.10220542      1.04607550     -0.68995052
H      -1.89205026      1.96294866      0.80930887
H      -1.97711579     -0.16125166      1.84257515
