15
b3lypvtz=-193587.66062084
C       2.33383957     -1.09930926     -0.05997156
C       1.30213508     -0.48740775     -0.02717444
C       0.05075049      0.29219949      0.02219721
C       0.24776939      1.63958503     -0.70058726
O      -0.33306294      0.52101886      1.38152877
C      -1.05522351     -0.49560806     -0.65222163
C      -2.16671406     -0.90239683     -0.06004463
H       3.24027158     -1.65108830     -0.08604916
H      -0.67370634      2.21578629     -0.62769633
H       1.05996369      2.20007588     -0.23588809
H       0.49517894      1.48858044     -1.75149730
H       0.44463170      0.81701359      1.86493825
H      -0.87494799     -0.70535253     -1.70025360
H      -2.35235336     -0.70464243      0.98580199
H      -2.91988826     -1.44789141     -0.61275124
