17
b3lypvtz=-217674.9311596
C      -1.00833993      1.09932859      0.84001393
C      -0.64216344     -0.20937782      0.17925242
C      -1.82242973     -1.02608289     -0.29530053
O       0.37455616     -0.98268552      0.85097154
C       0.66836947     -0.44062301     -0.45289816
C       1.80673276      0.53984743     -0.51623876
O       3.06019167     -0.12287317     -0.38363440
H      -0.13968282      1.60812754      1.24935724
H      -1.50027574      1.76498135      0.12753743
H      -1.70668552      0.91530942      1.65910931
H      -2.49077746     -1.24423504      0.54042747
H      -1.49298052     -1.97087819     -0.72509411
H      -2.39451304     -0.47970458     -1.04818504
H       0.71406410     -1.20047044     -1.23103686
H       1.82425404      1.02085739     -1.49622115
H       1.69663083      1.31800130      0.24281691
H       3.05294917     -0.58962237      0.45922276
