15
b3lypvtz=-191233.15785727
N      -0.92409530      1.86991924     -0.06895884
C      -0.18087184      0.84121861      0.01152416
C       1.33049926      0.90047831      0.11281424
C       1.80987647     -0.55713308     -0.06203873
C       0.53886885     -1.36096999     -0.02346164
C      -0.56137035     -0.59027482      0.01254428
N      -1.89865119     -0.95926305     -0.03876383
H      -1.90781935      1.61322297     -0.16187522
H       1.73505874      1.58458292     -0.63155796
H       1.60912405      1.29567289      1.09139185
H       2.50757596     -0.86185707      0.72235829
H       2.34016174     -0.69235765     -1.01018837
H       0.53382369     -2.44332854     -0.04517472
H      -2.07619781     -1.93739205      0.12932268
H      -2.51114290     -0.37822168      0.51593580
