17
b3lypvtz=-194362.93938909
C       2.90371073      0.52988951     -0.25985387
C       2.01516784     -0.25858702      0.33215593
C       0.76067361     -0.77903545     -0.30275893
C      -0.49439200     -0.32852045      0.43090073
C      -1.00451257      1.11167749      0.22275032
C      -2.30749292      0.43669111     -0.23555005
O      -1.70183590     -0.87608048     -0.16197425
H       2.78056034      0.85337558     -1.28702146
H       3.79066209      0.87330607      0.25626974
H       2.18615090     -0.55816864      1.36319129
H       0.76414107     -1.87471339     -0.29361757
H       0.69983548     -0.46604232     -1.34750333
H      -0.43020054     -0.61393063      1.48742122
H      -0.47609258      1.65339392     -0.55983705
H      -1.06730569      1.73609832      1.11081490
H      -2.65488958      0.66701714     -1.24455913
H      -3.14459429      0.53192725      0.46176752
