12
b3lypvtz=-252118.77832764
C      -0.56208422      1.74605431      0.07521116
C      -0.36351497      0.26408946      0.01414916
N      -1.13198280     -0.41357715     -0.75133655
O      -0.84529573     -1.79592898     -0.73129363
N       0.58389350     -0.25636035      0.90374804
C       1.52275979     -0.98016301      0.52677732
F       2.36993990     -1.48713967      1.42527531
H      -0.80031531      2.04830242      1.09621458
H      -1.36636571      2.04226549     -0.59322433
H       0.35498592      2.26511695     -0.21218228
H      -1.55587081     -2.15388770     -1.27174961
H       1.79395045     -1.27887178     -0.48158918
