15
b3lypvtz=-191204.49576591
C      -0.72778535      1.82912943     -0.08103067
C      -0.37282762      0.38781558      0.29634328
C      -1.51520794     -0.51073207      0.06763767
N      -2.41796296     -1.20490108     -0.09229479
N       0.76694084     -0.07803184     -0.49509793
C       1.54387311     -1.17770111      0.06790089
C       2.08382220      0.20578262      0.06988857
H      -1.58945713      2.17652996      0.48752051
H      -0.95428644      1.89184881     -1.14384372
H       0.11912633      2.47984265      0.13547430
H      -0.15565304      0.34368893      1.37601451
H       1.22640559     -1.58878834      1.02062030
H       1.89977276     -1.90715533     -0.64721296
H       2.84190812      0.50355867     -0.64247748
H       2.12759954      0.71900212      1.02572651
