17
b3lypvtz=-191968.22755663
C      -1.26550272      0.87267779      0.20024556
C      -0.54319528     -0.43245073     -0.06390269
C       0.67273092     -0.77327342      0.74505710
C       0.84310584     -0.42597812     -0.71199995
C       1.49649784      0.82121241     -1.18347319
N       2.09916106      1.71608335     -0.51670447
N      -1.35742789     -1.56842018     -0.44413285
H      -1.95821089      0.75377905      1.03718930
H      -0.58251216      1.68662455      0.44071620
H      -1.84835778      1.17510303     -0.67347197
H       0.99975116     -0.05230053      1.48348322
H       0.81837366     -1.80680483      1.02409209
H       0.98412981     -1.26792985     -1.37821885
H       1.43723157      0.97767130     -2.26385526
H       2.12691240      1.47349878      0.47651893
H      -1.92219898     -1.34485884     -1.25684248
H      -2.00048854     -1.80463375      0.30477163
