16
b3lypvtz=-204451.17416715
N       2.62202967     -0.53452401     -0.14505634
C       1.59905726      0.47748611     -0.41394989
C       0.42866825      0.33078999      0.54547817
C      -0.39278695     -0.98465569      0.39005319
C      -1.59380787     -0.13747895     -0.03531885
O      -2.70530259     -0.39331627     -0.39822469
C      -0.82904014      1.17625041      0.17557655
H       3.35062999     -0.50634986     -0.84774549
H       3.07003440     -0.36003849      0.74743891
H       1.96987797      1.51212041     -0.36473215
H       1.24156070      0.32348319     -1.43671499
H       0.76763198      0.50166642      1.56833545
H      -0.02286273     -1.67951722     -0.36500043
H      -0.57193251     -1.54578589      1.30847605
H      -1.24512314      1.78718199      0.97795798
H      -0.74434728      1.79659386     -0.71923845
