17
b3lypvtz=-171059.75779512
C       0.22494894      2.41667985     -0.03963776
C       0.16330075      1.21721768     -0.11887856
C       0.02688070     -0.19980951     -0.23437417
C       1.06988494     -1.02684115     -0.06431847
C       2.47506081     -0.63982086      0.25977810
C      -1.36342805     -0.71248274     -0.55710167
C      -2.38620891     -0.45456633      0.55496479
H       0.29146221      3.47331322      0.03336794
H       0.87988689     -2.09020004     -0.17464081
H       2.79788263     -1.10374169      1.19642388
H       2.58916305      0.43847227      0.35344571
H       3.16240344     -0.99417937     -0.51401326
H      -1.70998757     -0.23619303     -1.47863757
H      -1.29788760     -1.78324133     -0.75877370
H      -3.37163106     -0.82169564      0.26385451
H      -2.47388104      0.61092635      0.76928294
H      -2.09495612     -0.95969967      1.47736812
