17
b3lypvtz=-191941.34638737
C      -1.99213420     -0.56511193      0.72489149
N      -0.81866923      0.25848648      0.47385471
C      -0.91927787      1.23890640     -0.60410200
C      -0.08176216      0.01649373     -0.75594088
C       1.41462046      0.05377308     -0.67928163
C       2.12881790     -0.75764965      0.33316800
N       2.06942821      0.70901579      0.45514914
H      -2.66414885     -0.03714998      1.40274522
H      -2.54861834     -0.81327302     -0.19014769
H      -1.68623555     -1.49574855      1.20448252
H      -0.45222227      2.19766383     -0.41453016
H      -1.85033580      1.28176028     -1.16069253
H      -0.48236937     -0.74498628     -1.42207081
H       1.90138933      0.23127030     -1.63322399
H       1.52498847     -1.34630463      1.01416863
H       3.10789002     -1.16539731      0.11471647
H       1.34863924      0.93825146      1.13681352
