15
b3lypvtz=-212086.38051125
C      -2.33601411     -0.94143545      0.44116616
C      -1.47622018      0.01905384     -0.39186141
N      -1.68218469      1.39027495      0.05296033
C      -0.04881015     -0.46095912     -0.41297664
N       0.91390375      0.26171083      0.00033549
N       2.14592641     -0.43997842     -0.13678422
N       3.07080234      0.22260894      0.33902388
H      -2.24080068     -1.97052497      0.09284295
H      -2.03530219     -0.91010134      1.49047011
H      -3.38030833     -0.64147461      0.37426766
H      -1.82777509     -0.04942207     -1.42987023
H      -1.08538387      2.01559667     -0.47762467
H      -1.36974415      1.48182548      1.01453305
H       0.14542969     -1.46497914     -0.80160014
H       3.91382626     -0.34878457      0.19887470
