9
b3lypvtz=-212256.82285242
C      -0.06781603     -0.96826156     -0.36068404
C       0.56322632      0.15138138      0.07780048
N      -0.39122084      1.11592753      0.39762138
C      -1.51222001      0.54240732      0.14274149
O      -1.40258612     -0.73094532     -0.32369024
C       1.95939084      0.36641632      0.21056753
N       3.09704694      0.51684286      0.30955239
H       0.26186164     -1.93090257     -0.70445910
H      -2.50768276      0.93713405      0.25055011
