14
b3lypvtz=-203702.8847508
O      -1.64197328     -1.96922046     -0.00444420
C      -0.85542210     -1.05406994      0.03745435
C       0.64801268     -1.28174063      0.06959902
C       1.46638380     -0.02301945      0.03036026
C       0.91889950      1.16113519     -0.25494440
N      -0.44012804      1.33811177     -0.48583771
C      -1.34624770      0.38534386      0.14026686
H       0.85929180     -1.88502182      0.95940867
H       0.87797144     -1.93885916     -0.77718761
H       2.53553065     -0.09436965      0.16744244
H       1.52400640      2.05234579     -0.35990323
H      -0.75530236      2.29292443     -0.43355408
H      -1.45571099      0.57483989      1.22164943
H      -2.33541179      0.44170015     -0.31000980
