18
b3lypvtz=-205206.4963582797
C      -0.14000163     -1.99591305     -0.38211322
C      -0.48589854     -0.54132541     -0.65256580
C      -1.34303355      0.23407747      0.38212953
C      -0.47218167      1.48336691      0.10729885
O      -0.07950134      2.29596590      1.18465716
C       0.61174633      0.55959974     -0.53229581
N       1.62561478      0.24395479      0.47469622
H       2.32799222      0.97405203      0.49570388
H       0.44458468      1.72893523      1.76601637
H       2.10714746     -0.61799760      0.24951954
H       0.32198720     -2.11942143      0.59861737
H       0.54248531     -2.39740320     -1.13592223
H      -1.04124224     -2.61223706     -0.39913645
H      -0.93940838     -0.45669265     -1.64231462
H      -1.17725542     -0.13567090      1.39495735
H      -2.41542297      0.31213285      0.20533712
H      -0.92542128      2.14123024     -0.63351003
H       1.03780905      0.90334613     -1.48107520
