16
b3lypvtz=-204457.62241685
C      -1.29938829      1.01664094      0.65117154
N      -0.79607812     -0.15470996     -0.04121566
C      -1.74533419     -0.93116337     -0.81944214
C       0.52809386     -0.37320942     -0.14875453
C       1.54630380      0.37261715      0.35986486
C       2.91648082     -0.05846605      0.16819728
O       3.27968793     -1.07189041     -0.40765921
H      -1.15117808      1.93133245      0.06683846
H      -0.79064624      1.13491073      1.60811541
H      -2.36431853      0.89399594      0.83925726
H      -2.14957282     -0.35288132     -1.65720822
H      -1.25210195     -1.81424331     -1.21913818
H      -2.57937573     -1.25270166     -0.19235580
H       0.80328865     -1.26432953     -0.70164803
H       1.37907938      1.29559287      0.89699653
H       3.67495952      0.62860498      0.59688041
