12
b3lypvtz=-249505.29478622
C      -2.33830538      0.07561777      0.00013855
O      -1.07802138      0.75309395      0.00004710
C       0.02530287     -0.00349684      0.00002497
C       1.30081396      0.78870211     -0.00006375
O       1.31712690      1.99197421     -0.00010991
N      -0.06461948     -1.28187442      0.00007523
O       1.18644253     -1.91993468      0.00004723
H      -3.08840313      0.86076730      0.00016181
H      -2.43957250     -0.55091356     -0.88669946
H      -2.43946892     -0.55086735      0.88702108
H       2.21720691      0.18355313     -0.00009152
H       0.93916461     -2.84930462      0.00008566
