11
b3lypvtz=-236284.4248017
C      -1.87068613      0.16111496      0.03658189
N      -2.75619787      1.06727155     -0.05301214
C      -0.45748404      0.54296331      0.05399115
N       0.40854710     -0.38536858      0.14466791
O       1.70568794      0.17033269      0.14623590
C       2.70300854     -0.76396807      0.24289737
O       2.58445399     -1.94265402      0.32233032
H      -2.06866580     -0.91109602      0.10412185
H      -3.69329469      0.66602319     -0.05437278
H      -0.20209409      1.59792346     -0.01074153
H       3.64672503     -0.20254247      0.23247962
