16
b3lypvtz=-202064.56597321
C       2.18155242     -0.94370104      0.51141288
C       1.24904096     -0.21851286     -0.11749640
N       1.48661774      1.10564208     -0.57509435
N      -0.03857620     -0.71491831     -0.35988791
C      -1.08373844     -0.07219045      0.01989036
C      -2.44133585     -0.65565047     -0.26572470
N      -1.08758820      1.09588068      0.73556224
H       3.18290843     -0.56500614      0.66181472
H       1.93760412     -1.92131383      0.89492862
H       2.47104370      1.33456600     -0.59349156
H       1.08295584      1.26300196     -1.49032173
H      -2.32585159     -1.60523279     -0.77828561
H      -3.03187153      0.02058836     -0.88916272
H      -2.99278854     -0.81324035      0.66396733
H      -1.95200639      1.59805707      0.83425780
H      -0.23872548      1.64207209      0.72825903
