12
b3lypvtz=-249522.59566795
O      -2.28859444      1.46120329     -1.24021323
C      -1.61600154      1.03149280     -0.34159082
C      -1.07323555     -0.38384156     -0.31224577
C       0.36251624     -0.47252664      0.09295982
O       0.78816204     -1.71055714      0.39996197
N       1.08822516      0.57752198      0.11501491
O       2.40820456      0.22991908      0.51852536
H      -1.38317871      1.64463638      0.54797840
H      -1.66470264     -0.95455158      0.41370132
H      -1.22557596     -0.84908575     -1.28739520
H       1.73177436     -1.64470536      0.61630964
H       2.87240648      1.07049450      0.47699361
