16
b3lypvtz=-227741.96702983
C      -0.05456792      0.13571937     -1.33271467
C      -1.03782750     -0.32758837     -0.27781429
C       0.35222282      0.11246999      0.11451491
C       1.36891683     -0.86667919      0.62833259
O       2.70303723     -0.43000684      0.40478134
O       0.45336736      1.33776394      0.79055594
N      -2.08507520      0.59646542      0.09164514
H       0.35321361     -0.60493866     -2.00671699
H      -0.22595214      1.11096119     -1.76859690
H      -1.26266977     -1.39036041     -0.24982031
H       1.26563054     -1.82255415      0.11322760
H       1.18866698     -1.03270734      1.69812932
H       2.77094820      0.46258907      0.76124574
H      -0.44490782      1.70882209      0.79223925
H      -2.59775138      0.27030359      0.90133858
H      -2.74725181      0.73974031     -0.66034726
