20
b3lypvtz=-182654.56655876
C       2.57108716     -0.14780020     -0.08930286
C       1.17124882     -0.69719341     -0.34185338
N       0.27884516     -0.31913276      0.74878425
C      -0.57233794      0.87405271      0.65679018
C      -0.59037125      1.80893145     -0.53039251
C      -1.17097645     -0.49517780      0.63261902
C      -1.84281730     -1.09154425     -0.58273390
H       3.26031635     -0.47138901     -0.87168466
H       2.56684149      0.94345886     -0.07476642
H       2.94756449     -0.49350403      0.87356158
H       0.82969963     -0.37592376     -1.33329113
H       1.20689468     -1.78947227     -0.36413836
H      -0.62641971      1.40752927      1.60221541
H      -1.47897719      2.44218550     -0.48301862
H       0.28014490      2.46869469     -0.51740715
H      -0.60495470      1.29828648     -1.49061946
H      -1.61478038     -0.84437179      1.56174843
H      -1.45358099     -0.71399984     -1.52565060
H      -1.72899912     -2.17805042     -0.58888481
H      -2.91347764     -0.87709141     -0.55664802
