18
b3lypvtz=-181887.30716706
C      -1.56878872      1.30164439      0.27674513
C      -0.73040024      0.08219926      0.48979541
C      -1.03580868     -1.33792778      0.00123633
C       0.50433887     -1.59623497     -0.09745298
C       0.74013468     -0.16448049      0.39563408
N       0.07678050     -0.10254107      1.72602291
C       1.89599966      0.72056931      0.05516916
H      -1.01682612      2.21285649      0.51816681
H      -2.46100946      1.27773187      0.90881504
H      -1.89949310      1.37434168     -0.76148735
H      -1.59119997     -1.95969646      0.70341877
H      -1.52455623     -1.35758015     -0.97271721
H       0.91021458     -2.37925013      0.54305767
H       0.83525660     -1.75329407     -1.12393022
H       0.25689470      0.82676248      2.10291306
H       2.80294267      0.39516429      0.57253795
H       1.70417001      1.75649937      0.34398561
H       2.10135024      0.70323598     -1.01728516
