10
b3lypvtz=-225497.63185007
C      -1.05236717      0.66631896     -0.12554462
C       0.19539859      1.12963349      0.09149573
N       1.16889700      0.13989321      0.02652471
C       0.59058468     -1.09215793     -0.25056613
O       1.15190944     -2.14472394     -0.37183521
C      -0.95265610     -0.77002492     -0.36356974
O      -1.79379361     -1.59951441     -0.59936926
H      -1.95955855      1.24460463     -0.12474546
H       0.49606538      2.14521398      0.30051885
H       2.15552036      0.28075693      0.15912868
