16
b3lypvtz=-181060.44073201
C      -0.95187075     -0.32958315      0.30970207
C      -0.43357719     -1.40000765     -0.70037526
C       1.00003333     -0.94053401     -0.96552088
C       1.09296670      0.41434383     -0.71438199
C       0.34822562      0.41693198      0.60486485
N       1.29521467     -0.56707521      1.28218061
C       1.96989029     -1.37436296      0.13532971
H      -1.35972166     -0.78473858      1.21032972
H      -1.70143241      0.33908544     -0.11655359
H      -0.46305801     -2.40615822     -0.28411717
H      -1.01504872     -1.41142868     -1.62188860
H       2.05722067      0.91548902     -0.74627588
H       0.26392930      1.33540327      1.18318402
H       1.95167161     -0.16686163      1.94150464
H       1.94678519     -2.43565536      0.38435353
H       2.99827136     -1.06284808     -0.04913578
