16
b3lypvtz=-227748.5918356
N      -2.39640438     -0.62453701      0.57792974
C      -1.86639519      0.05918649     -0.61703095
C      -0.69996318      0.95184542     -0.28355748
C       0.50440228      0.52255773      0.09674686
O       1.55703320      1.35880344      0.38047388
C       0.92698755     -0.90411875      0.29068626
O       2.05385593     -1.24495013     -0.51097810
H      -3.23910769     -1.13841650      0.34256917
H      -2.65466181      0.05933424      1.28072350
H      -1.56071779     -0.71773554     -1.32252967
H      -2.61858485      0.66603423     -1.13637646
H      -0.86759583      2.02394997     -0.34533291
H       1.30868095      2.26880903      0.18460511
H       1.14437127     -1.05905573      1.35548894
H       0.11977008     -1.57793819      0.02179946
H       2.74018046     -0.59238270     -0.33682234
