9
b3lypvtz=-258836.00334652
N       0.96023093      0.23690276     -0.04337437
C       0.21314626      1.20073381     -0.29332912
O       0.57709061      2.51301097     -0.62349096
C      -0.59237423      3.14977837     -0.79407408
O      -0.50845501      4.42747046     -1.11793236
N      -1.65057527      2.45482764     -0.62576778
O      -1.14236500      1.15501109     -0.29174208
H       1.94267539      0.47902407     -0.09759263
H      -1.40347367      4.78194084     -1.21469663
