15
b3lypvtz=-219535.78525344
C      -2.52301522     -0.82944570     -0.02386170
C      -1.35925390     -0.18056560      0.00541116
F      -1.41249198      1.19182942      0.04697453
C      -0.03016805     -0.73479384      0.00788971
C       1.15922854     -0.08372814      0.00100215
C       2.45031759     -0.85315911      0.02080936
N       1.32814310      1.27831762     -0.08376361
H      -2.53947482     -1.90749960     -0.05726192
H      -3.45755703     -0.29066110     -0.01526910
H      -0.00041671     -1.81453448      0.00675763
H       2.27436883     -1.92490176      0.05902619
H       3.05161912     -0.57480306      0.89161080
H       3.04375726     -0.62794632     -0.86886872
H       0.52543363      1.86319405      0.06978806
H       2.20431364      1.65220564      0.23707645
