11
b3lypvtz=-212987.26112399
N       2.64379921     -0.29918001     -0.00000600
C       1.68677625      0.53009312     -0.00000101
C       0.24154719      0.22393715     -0.00001198
N      -0.19055711     -1.01569578      0.00003369
O      -1.57221569     -0.93652085     -0.00000478
C      -1.93599150      0.35691662     -0.00002612
C      -0.84099884      1.15031270      0.00000999
H       2.29056740     -1.25887003      0.00000225
H       1.92814811      1.59392035     -0.00000697
H      -2.99524196      0.54932696     -0.00003318
H      -0.79667106      2.22464977      0.00005112
