16
b3lypvtz=-202019.26919556
C      -1.05430454     -0.70534250      1.12587848
C      -0.61022925     -0.01873590     -0.14316524
C      -1.46491922      1.06393912     -0.71176941
N      -1.38500834     -0.23354991     -1.39041073
C       0.85152612      0.05049856     -0.38739326
N       1.69291431     -0.30156027      0.49613630
N       3.03050439     -0.27929276      0.17305425
H      -0.62508661     -0.21900207      2.00167187
H      -0.72437658     -1.74498843      1.13748900
H      -2.14198124     -0.68072047      1.21283118
H      -2.36613856      1.31946699     -0.16613357
H      -1.01442476      1.88930372     -1.25030532
H      -2.20814997     -0.79096890     -1.18574618
H       1.15611024      0.40669950     -1.37750014
H       3.28154009      0.39861691     -0.54259573
H       3.58202392     -0.15436361      1.00795851
