16
b3lypvtz=-181049.76033251
C      -0.85218863      0.05451857     -1.10157101
C      -0.80708745      1.27987558     -0.17526011
C      -1.31448994      0.30834210      0.99378108
C      -0.17279657     -0.41409684      0.21678251
N       1.00406326     -1.33338993      0.08926108
C       1.75699179     -0.06886200     -0.36750079
C       0.64656751      0.85476563      0.25708090
H      -0.23374808      0.08840197     -1.99477657
H      -1.83463149     -0.36508932     -1.31418233
H      -1.20796104      2.27316319     -0.37699200
H      -2.33778193     -0.05794459      0.89636026
H      -1.08273314      0.61881834      2.01183887
H       1.34855689     -1.59144616      1.01141207
H       2.73651755      0.04876000      0.09266513
H       1.86636592     -0.07003956     -1.44819955
H       0.93905535      1.19442302      1.25120045
