11
b3lypvtz=-264621.71764727
C      -1.66555993      0.88178420     -0.41719958
C      -0.73437038      0.00819878     -0.01786713
N       0.61073104      0.32264716     -0.12321374
C       1.58793974     -0.39513239      0.20234944
O       2.85851626     -0.01234429      0.06785322
F       1.57360522     -1.61542279      0.71916626
O      -1.01594912     -1.22211426      0.50944826
H      -2.71953157      0.65481508     -0.34406099
H      -1.36758630      1.83331186     -0.82371415
H       2.84445077      0.87770205     -0.30871391
H      -1.97224575     -1.33344539      0.53595231
