13
b3lypvtz=-213786.91888631
C      -2.86849684     -0.09990416     -0.49399808
C      -1.71424359      0.53749046     -0.29128173
C      -0.44785462     -0.16757126     -0.21915849
N       0.65186065      0.45166772     -0.02358616
C       1.81964125     -0.38757545      0.02202573
O       1.83787884     -1.59407488     -0.12371824
N       2.92082731      0.36693553      0.25395695
H      -2.90177839     -1.17617521     -0.61304713
H      -3.81030118      0.42871508     -0.54694755
H      -1.67685109      1.61363753     -0.17131242
H      -0.45877405     -1.25476879     -0.33863264
H       3.81808346     -0.07777503      0.32071663
H       2.83000826      1.35939847      0.36894995
