12
b3lypvtz=-200495.08854916
C       3.53925815      0.31732501      0.23624252
C       2.44447906     -0.17506742      0.16031362
C       1.19058742     -0.83276573      0.07197425
N       0.09298995     -0.17286515      0.01214154
N      -1.02678292     -0.98670397     -0.07828696
C      -2.11871473     -0.29151486     -0.08510515
N      -2.23704793      1.04756904      0.02033201
H       4.49721369      0.76908440      0.30508497
H       1.18040822     -1.92308779      0.05467685
H      -3.04697993     -0.84579178     -0.16678367
H      -3.12215179      1.49735058     -0.11375010
H      -1.39325922      1.59646767      0.02970134
