12
b3lypvtz=-249530.52679156
C      -2.25016958     -1.11823803     -0.00000136
C      -1.38802925      0.10824764      0.00001142
O      -1.75959177      1.24663262      0.00002759
O      -0.05611290     -0.25539282     -0.00002149
C       0.87887333      0.74388537     -0.00002807
N       2.12489336      0.52618476     -0.00007248
O       2.44333773     -0.83632290      0.00006684
H      -2.02803833     -1.72580311      0.87771868
H      -3.29565715     -0.82629472      0.00002075
H      -2.02806332     -1.72575744     -0.87775966
H       0.51686535      1.76021021      0.00000732
H       3.40558353     -0.81826558      0.00001645
