18
b3lypvtz=-202798.77262114
C       1.61423452     -1.41717095     -0.52079188
N       1.10621854     -0.72977004      0.66473826
C      -0.12698077      0.03895986      0.52439019
C       0.16351935      1.41187472     -0.06865197
N       1.29507252      1.96173324     -0.18560994
C      -1.28082592     -0.67089668     -0.21970870
N      -2.55276862      0.03201093     -0.01116406
H       2.57918515     -1.86460854     -0.28067420
H       1.77811865     -0.69686794     -1.32285800
H       0.96229318     -2.21005420     -0.90932332
H       1.03295772     -1.37013488      1.44199511
H      -0.50684232      0.22404620      1.53475763
H      -0.70947537      1.97743758     -0.40205042
H       2.00590448      1.32537449      0.19093387
H      -1.02300935     -0.80073251     -1.27822665
H      -1.38171137     -1.67094437      0.20740414
H      -3.32993535     -0.57487860     -0.24094786
H      -2.63101504      0.83423769     -0.62394120
