12
b3lypvtz=-202943.55193326
C      -2.58340948     -0.37614358     -0.00001615
C      -1.62977086      0.55666678     -0.00000528
C      -0.21040097      0.31303558      0.00001872
C       0.87832349      1.13050293      0.00003363
N       2.03513754      0.37015680      0.00004097
C       1.61231879     -0.84771715      0.00018478
O       0.26491635     -0.97835323      0.00010436
H      -3.62818872     -0.10083170     -0.00003821
H      -2.34694826     -1.43130735      0.00001048
H      -1.89954997      1.60650583     -0.00000950
H       0.90457288      2.20660010     -0.00015741
H       2.18919622     -1.75677201     -0.00031939
