12
b3lypvtz=-202915.71523022
C       3.01200329     -0.85124962     -0.00657225
C       1.95145273     -0.28677695     -0.00303230
C       0.66965701      0.41649166      0.00136776
O       0.64775594      1.64179688     -0.00453860
C      -0.50634785     -0.43878364      0.01309821
C      -1.73918599      0.12034843      0.01699205
N      -2.92120639     -0.52897536      0.02360639
H       3.95654753     -1.33635168     -0.00989298
H      -0.36785605     -1.51209969      0.01618903
H      -1.80379966      1.20224354      0.01243963
H      -3.78694807     -0.02390835      0.03857490
H      -2.96751649     -1.53250822      0.03694716
