15
b3lypvtz=-240231.64472739
C       0.77153556     -1.77573190      0.12125291
C       0.79417646     -0.33124001     -0.34229677
O       2.07635163      0.27875878     -0.13587694
C      -0.27616178      0.55587426      0.34352942
O      -0.03556760      1.92032515      0.07301080
C      -1.67238002      0.23396107     -0.16040168
O      -2.27881665     -0.76962456      0.11111850
H       0.99159195     -1.83905838      1.19079229
H       1.51925084     -2.35480168     -0.42021091
H      -0.20886523     -2.22252588     -0.03708623
H       0.64409079     -0.27555073     -1.42268463
H       2.40010783      0.02043403      0.73489459
H      -0.25494335      0.35351018      1.42458659
H       0.92383793      2.01620620     -0.00009888
H      -2.09190537      1.01430349     -0.82609209
