14
b3lypvtz=-203676.49401783
C       1.68841244     -1.50238381      0.74907593
C       1.28151513     -0.25010447      0.53597516
C      -0.06665108      0.13334815      0.13331747
C      -0.43116512      1.42069983     -0.03365746
O       0.45695844      2.45044694      0.09898322
N      -1.02878892     -0.88926948      0.02019141
C      -1.80429034     -0.92698275     -0.97902232
H       2.70482831     -1.71059815      1.05354517
H       1.01710624     -2.34253115      0.63779232
H       1.97557748      0.57142474      0.65979563
H      -1.45915012      1.68804510     -0.24567507
H      -0.02119453      3.27637077      0.20982673
H      -1.73467201     -0.22924214     -1.82075445
H      -2.57848591     -1.68922357     -1.01939371
