11
b3lypvtz=-262043.95871593
C       2.52106315     -0.21158582      0.00039738
O       1.15048331     -0.66665388      0.00028047
C       0.22845758      0.27425251      0.00019175
O       0.42360096      1.46928976      0.00019980
C      -1.20912708     -0.29576469      0.00006854
O      -1.47685330     -1.45881289      0.00012241
O      -2.11281232      0.68992652     -0.00009757
H       2.71582965      0.38598265      0.88888889
H       3.12318416     -1.11365206      0.00044007
H       2.71597695      0.38599753     -0.88805185
H      -1.62443508      1.53246137     -0.00008290
