18
b3lypvtz=-181909.77813072
C      -3.35137206      0.49519424     -0.19035424
C      -2.24994311      0.01479244      0.38183412
N      -1.08045185     -0.21293946     -0.34888064
C      -0.06726990     -0.67408635      0.26605863
C       1.23416424     -0.96425523     -0.40917618
C       2.42019203     -0.20110945      0.20931660
C       2.35597634      1.31006174     -0.01059931
H      -4.24903524      0.66734887      0.38604464
H      -3.36686889      0.72228887     -1.24755510
H      -2.23319327     -0.21609201      1.44967803
H      -0.10784892     -0.88196567      1.34695327
H       1.42909178     -2.03937746     -0.32047538
H       1.13637316     -0.73399388     -1.47099103
H       2.46834297     -0.41813316      1.28091991
H       3.34402400     -0.59484026     -0.22064355
H       1.45282480      1.74204372      0.42384852
H       3.21508242      1.80828836      0.44127415
H       2.35221751      1.55036869     -1.07571545
