12
b3lypvtz=-200532.40436011
C       2.85966785     -0.50930559     -0.00905080
N       1.77975429      0.16417086      0.03968348
C       0.56290770     -0.48662407      0.00277346
C      -0.57720649      0.24958061     -0.00723713
N      -0.61202987      1.62605981     -0.07815052
C      -1.84238243     -0.41925084     -0.00475185
N      -2.87168798     -0.93779895      0.01605607
H       3.81111515      0.01019206      0.03419035
H       2.87938049     -1.60029322     -0.09395293
H       0.50717373     -1.57129074     -0.02441603
H       0.28149576      2.06280996      0.09383241
H      -1.40457620      2.08503312      0.33900748
