9
b3lypvtz=-292172.50445685
O       0.92769351     -0.95021496     -1.18655772
C       0.85672182     -0.04982220     -0.38642907
O       1.87511368      0.77597239     -0.08701942
C      -0.36428682      0.27599728      0.38253901
F      -0.30803792      1.30189858      1.23912922
C      -1.47978699     -0.43197253      0.22336324
F      -2.58580979     -0.15476195      0.90470216
H       2.62797241      0.49577210     -0.62890265
H      -1.54947991     -1.26296870     -0.46082477
