18
b3lypvtz=-205197.9468178
C      -2.90476260      0.73183398      0.23214626
C      -2.26167273     -0.12098839     -0.56387510
O      -1.00672889     -0.60603338     -0.44181915
C      -0.23065202     -0.15600325      0.66411238
C       1.14811761     -0.78971920      0.58143388
N       1.96024499     -0.24951512     -0.49916816
C       2.65561194      0.98755012     -0.17965237
H      -3.91510108      1.01536629     -0.02041828
H      -2.47404814      1.16183214      1.12318490
H      -2.73051556     -0.53252259     -1.44926438
H      -0.72084086     -0.44894162      1.59934259
H      -0.16584032      0.93647020      0.64650757
H       1.01358760     -1.85979775      0.41522890
H       1.62790527     -0.67133914      1.56822788
H       2.61844747     -0.94552929     -0.81814683
H       1.93928755      1.79813754     -0.03336450
H       3.29447112      1.27219840     -1.01573980
H       3.27850867      0.92794006      0.72803121
