17
b3lypvtz=-191992.92567064
C      -0.17892046      1.60679305     -0.21423356
C      -0.27689084      0.28872746      0.55758514
C      -1.72109674     -0.22955437      0.63819388
N      -2.26477731     -0.55242199     -0.68487603
C       0.63498088     -0.80287462     -0.04631626
C       2.04311745     -0.42648081     -0.08317901
N       3.15140958     -0.11626963     -0.09998830
H      -0.83239872      2.36161850      0.22726928
H      -0.46647081      1.47600970     -1.25954391
H       0.83835504      1.99779466     -0.20057912
H       0.05239245      0.46874545      1.58494634
H      -1.73407098     -1.14580359      1.23287126
H      -2.31914216      0.50996034      1.18741288
H      -3.08038130     -1.14509989     -0.60193946
H      -2.56143709      0.28415765     -1.17153054
H       0.54770187     -1.72434097      0.53461865
H       0.29772214     -1.03611094     -1.05752625
