15
b3lypvtz=-191212.35267398
C      -3.33598929      0.29119598      0.25593870
C      -1.96429185     -0.15488310      0.05024275
C      -0.83823904     -0.54374139     -0.11107802
C       0.53351929     -1.00174928     -0.31112980
C       1.61201268      0.02972772      0.00826720
N       1.31978442      1.31024884     -0.40911317
N       2.69450500     -0.38427238      0.53680252
H      -3.97681557     -0.54445092      0.54435081
H      -3.75141743      0.73082258     -0.65314048
H      -3.39296661      1.04099707      1.04774261
H       0.66612608     -1.30357523     -1.35550581
H       0.74651325     -1.87816344      0.29922139
H       1.90656328      2.05124729     -0.06237748
H       0.34371822      1.54694740     -0.49646516
H       3.36608757      0.37302186      0.66529993
