15
b3lypvtz=-191162.29156202968
C      -1.27371595      1.29159198      0.10196987
C      -0.45973197      0.04920892      0.27862419
C       0.95859650     -0.06842838      0.78381793
C       1.90324404     -0.06389998     -0.35286904
N       1.19832720     -1.32495967     -0.05615734
C      -0.17137898     -1.13533583     -0.56758652
N      -1.08380739     -1.27730470      0.57306330
H      -2.12666262      1.11109732     -0.55521758
H      -1.66183641      1.64608897      1.06039588
H      -0.67567576      2.09295924     -0.33524687
H       1.27370021     -0.02817176      1.81778608
H       1.65449238      0.48015970     -1.25793205
H       2.96007149     -0.11295505     -0.12591711
H      -0.45971541     -1.40841022     -1.57375397
H      -2.03590733     -1.25164056      0.20902323
