16
b3lypvtz=-227752.76609764
C       1.19483399      1.27886703      0.80818757
C       0.82085709      0.46040169     -0.42452657
O       1.93306136     -0.27311306     -0.92031713
C      -0.35092782     -0.51338496     -0.18968627
O       0.10667454     -1.45414069      0.78861007
C      -1.61670097      0.17386859      0.26666423
N      -2.61173016      0.49251920     -0.44819850
H       2.07109337      1.88467035      0.58133662
H       1.43126926      0.62707136      1.64973988
H       0.38430009      1.94601888      1.10719874
H       0.52916076      1.13207395     -1.23426408
H       2.09740805     -0.98835162     -0.29349309
H      -0.53895002     -1.02029835     -1.14280688
H      -0.49626133     -2.20277803      0.81377768
H      -1.65372302      0.41137378      1.33197933
H      -2.46888119      0.21066388     -1.42219160
