14
b3lypvtz=-203642.39941381
C       0.33003764     -1.04503717     -0.74556916
C       1.36006701     -0.08018074     -0.11677120
C       0.47773858     -0.01607116      1.15799680
C      -0.44855028      0.13143843     -0.07441615
N       0.56013365      1.05366704     -0.75169517
C      -1.91804680      0.37616212     -0.14752019
O      -2.68640620      0.12759298      0.74673295
H       0.30058164     -1.06162765     -1.83159435
H       0.21301441     -2.02410951     -0.28808668
H       2.44448202     -0.11827590     -0.18985242
H       0.58612700      0.87754425      1.77271351
H       0.37873757     -0.91690208      1.76318232
H       0.66716688      1.89711207     -0.18221284
H      -2.26508312      0.79868734     -1.11290741
