14
b3lypvtz=-203622.41373908
C       0.76875773      1.46297264      0.64052189
C      -0.56802022      0.73901847      0.35563796
C       0.03662967     -0.67048392      0.65167466
C       1.18326356      0.15575237     -0.02854328
C      -0.05337136      0.14234152     -0.99314144
N      -0.35483132     -1.28920908     -0.65833140
O       2.47567728     -0.23422002     -0.29215962
H       1.04723027      1.58237081      1.68807217
H       0.95911872      2.37838000      0.07933268
H      -1.58286045      1.06142296      0.57039190
H       0.06063343     -1.21201297      1.59571775
H      -0.13581700      0.56175146     -1.99431035
H      -1.35981412     -1.46570994     -0.69056219
H       2.44100380     -1.10017430     -0.71840071
