18
b3lypvtz=-181905.10583323
C       2.91154625     -0.70295949     -0.34175506
C       1.99729749      0.12725589      0.14500932
C       0.64578037     -0.28970138      0.64549943
C      -0.53802519      0.24355252     -0.20266249
C      -0.62279457      1.77718091     -0.20438788
C      -1.82832594     -0.33995479      0.31982296
N      -2.64760426     -1.09740190     -0.27805273
H       2.73450001     -1.77072329     -0.40321790
H       3.87230575     -0.34792153     -0.69079024
H       2.22871053      1.18685817      0.19241342
H       0.51376943      0.06132275      1.67567900
H       0.59462094     -1.38030540      0.67455853
H      -0.40281329     -0.10571229     -1.23094153
H      -0.74784825      2.16338492      0.81003564
H       0.27825265      2.22329912     -0.62444903
H      -1.47137512      2.11813238     -0.79848416
H      -2.07472760     -0.06286136      1.35063377
H      -2.32812418     -1.29553024     -1.23019705
