19
b3lypvtz=-192733.70048534
C       2.62499553     -1.17637234      0.01770860
C       1.54225376     -0.53061801     -0.39890800
C       0.77003826      0.47533822      0.41884075
N       0.74487934      1.81799066     -0.19201424
C      -0.66633920      0.02034025      0.73939264
C      -1.60865091     -0.14629724     -0.46001360
N      -2.97325673     -0.56318366     -0.12650986
H       3.02098341     -1.02999396      1.01671874
H       3.15534598     -1.87384176     -0.61763450
H       1.18238929     -0.70098092     -1.41076361
H       1.28616734      0.58573038      1.37646300
H       0.34002442      1.77908731     -1.12110969
H       1.69385636      2.15338329     -0.31367900
H      -1.09899784      0.75887467      1.42035112
H      -0.61474340     -0.92933599      1.28026492
H      -1.20567511     -0.88166666     -1.16025478
H      -1.68537870      0.79600994     -1.00780040
H      -3.40153131      0.11012371      0.49928934
H      -2.95775350     -1.44623189      0.37195058
