11
b3lypvtz=-241320.05268095
F       2.43981941      0.46506841     -0.00010402
C       1.58773768     -0.62725397      0.00000193
C       0.18104070     -0.14507451      0.00002960
C      -0.40892842      1.06944336      0.00003412
N      -1.79069344      0.90025380      0.00010960
C      -1.96085549     -0.37309903     -0.00001445
O      -0.80562792     -1.09431043      0.00012545
H       1.79994695     -1.22976018      0.88744409
H       1.79986354     -1.22987583     -0.88738155
H       0.05150135      2.04068023     -0.00004449
H      -2.88006335     -0.93316785     -0.00016226
