17
b3lypvtz=-215294.0996861
C       2.08675010     -0.91640872      0.44070164
C       1.29022468      0.34165526      0.17877981
O       1.71963320      1.43954861      0.46012152
C      -0.10392234      0.18610077     -0.43568802
N      -0.56379901      1.37408662     -1.14942144
C      -1.12502416     -0.14018661      0.69254331
N      -2.48381744     -0.37375979      0.23085739
H       1.48166711     -1.67425478      0.94145666
H       2.96517218     -0.68597332      1.03865240
H       2.40450607     -1.34556744     -0.51364434
H      -0.09661122     -0.66031987     -1.12851597
H      -0.24845812      2.19368253     -0.63793238
H      -0.12573661      1.43083989     -2.06109934
H      -1.13368664      0.70945461      1.38107251
H      -0.79378523     -1.00808216      1.26558315
H      -2.53740449     -1.24095399     -0.29173718
H      -2.73570809      0.37023839     -0.41172974
