20
b3lypvtz=-182680.19898418
C      -3.01734110     -0.51720293      0.26976478
C      -1.58865086     -0.77589962     -0.10973616
C      -0.63452714      0.15634322     -0.24310085
N      -0.83501417      1.51677730      0.02680219
C       0.78403053     -0.19087615     -0.61415879
C       1.80072392      0.01660424      0.51988083
C       3.22849956     -0.32646935      0.10084878
H      -3.17450118     -0.52914913      1.35412783
H      -3.67775289     -1.27519326     -0.15461863
H      -3.37636845      0.45177731     -0.09140974
H      -1.29820527     -1.80709776     -0.26261658
H      -1.79779593      1.80830917      0.09509429
H      -0.30016330      2.14296884     -0.55683360
H       0.81478521     -1.23001429     -0.94551786
H       1.08981689      0.41654756     -1.47683813
H       1.50437488     -0.60159988      1.37136604
H       1.75309088      1.05140217      0.86585559
H       3.30821392     -1.36724721     -0.22205245
H       3.92957305     -0.18150156      0.92444040
H       3.56033445      0.30104035     -0.72997295
