18
b3lypvtz=-181888.02198193
C       2.03863826      0.95735042     -0.39245832
C       0.90283019      0.11412458      0.10746087
C      -0.23317190      0.62378836      1.00642834
C      -1.24897721     -0.27683719      0.24112165
N      -2.32200046      0.48714384     -0.37561391
C      -0.09061622     -0.77314393     -0.64640624
C       0.98112921     -1.38010635      0.21763926
H       2.60437289      0.43801533     -1.16855227
H       1.68074273      1.90046569     -0.81317230
H       2.73501421      1.19938798      0.41572539
H      -0.46463870      1.67651096      0.83913582
H      -0.12093200      0.45862355      2.08034354
H      -1.70895204     -1.06372118      0.84419870
H      -2.90120620     -0.11437211     -0.95117652
H      -1.94214341      1.20020716     -0.98967311
H      -0.16012070     -0.98220470     -1.70710978
H       0.71020730     -1.88301254      1.14143083
H       1.80386907     -1.84335486     -0.31277595
