13
b3lypvtz=-242060.87607743
N      -0.92954969     -1.91806257      0.81670161
C      -1.11885534     -0.66294588      0.74853436
C      -0.30028135      0.32230314      0.01578007
C      -0.51400007      1.63242324      0.13923711
F      -1.46855876      2.14401293      0.93027048
C       0.78607690     -0.13939908     -0.92058939
O       1.81613445     -0.88307439     -0.27097924
H      -0.07862620     -2.19116290      0.32204828
H      -1.97955750     -0.25479498      1.27673148
H       0.04142990      2.40517655     -0.37698634
H       1.20061203      0.71699466     -1.46298547
H       0.36904913     -0.82313506     -1.66188275
H       2.17612651     -0.34823566      0.44421980
