15
b3lypvtz=-214525.15585817
C      -0.45826918      1.61156514     -0.23763630
C      -0.21130783      0.31440455     -0.02909705
O      -1.14736823     -0.64915481      0.16467928
C      -2.51368234     -0.27411613      0.08636288
C       1.16509399     -0.28104803     -0.01546613
N       1.41634538     -1.51385313     -0.21602503
N       2.19764237      0.62111068      0.17022499
H       0.35969955      2.28463848     -0.43552130
H      -1.45507912      2.02273502     -0.25849954
H      -2.74896665      0.15155038     -0.89257078
H      -2.76811431      0.45029887      0.86451241
H      -3.08629007     -1.18517312      0.23785575
H       0.55614095     -2.02029014     -0.40379716
H       2.02680242      1.37164594      0.81927562
H       3.09216107      0.16986428      0.28713237
