14
b3lypvtz=-224601.67130066
C       1.72764053     -1.38439646      0.01793330
C       1.18649721      0.02093316     -0.00575898
O       1.91135548      1.00030150      0.00244441
C      -0.29100797      0.22129351     -0.01447955
N      -0.73514567      1.53053978      0.08183282
N      -1.05658287     -0.81098632     -0.06258628
N      -2.40820909     -0.54355720     -0.07268846
H       1.18712490     -2.02896126     -0.67214998
H       1.59559233     -1.80826162      1.01577883
H       2.78807172     -1.35626247     -0.21979737
H      -1.52650093      1.75009072     -0.50777780
H       0.02764380      2.18815732     -0.01313006
H      -2.67560751      0.21291072      0.55540587
H      -2.91683193     -1.38855938      0.14068626
