14
b3lypvtz=-226988.81362439
N       2.40316127     -1.27081295     -0.44301057
C       1.36138168     -0.66360484     -0.81599446
O       1.30279453      0.08980800     -1.94829020
C       0.06760209     -0.76420624     -0.03777938
C      -0.51830068      0.58540101      0.30165343
C      -1.93175912      0.89357467      0.07966763
O      -0.93471941      1.38216053     -0.83015308
H       3.16524185     -1.10602611     -1.10100871
H       0.45656413      0.56313723     -1.98671031
H       0.26471934     -1.33076669      0.87017793
H      -0.65229323     -1.32586210     -0.64018705
H       0.01772673      1.15963162      1.05119510
H      -2.58511786      0.12511305     -0.31966392
H      -2.41700130      1.66245282      0.67010358
