17
b3lypvtz=-191961.81813722
C      -2.12359401     -1.38051091     -0.00000781
C      -0.65226299     -1.12562455     -0.00002003
C      -0.03630396      0.06852632     -0.00005512
C       1.45718404      0.27146635     -0.00006991
C       2.30714300     -0.99535484      0.00003905
N      -0.88396866      1.20773878     -0.00008506
N      -0.28756873      2.30385090     -0.00013208
H      -2.40431398     -1.97439300      0.87495239
H      -2.40432522     -1.97441218     -0.87495166
H      -2.69705750     -0.45879651     -0.00001517
H      -0.02574683     -2.00967309     -0.00000129
H       1.71332276      0.89281762     -0.86268932
H       1.71331829      0.89296592      0.86244274
H       3.36592835     -0.73395336      0.00003636
H       2.12183743     -1.61052843     -0.88247668
H       2.12180582     -1.61039560      0.88264115
H      -1.01602080      3.02980356     -0.00014856
