16
b3lypvtz=-225336.28685887
C       2.81005534     -0.25239003      0.13169034
C       1.45817587      0.43043834     -0.03210450
N       0.41516417     -0.57711674     -0.19630874
C      -0.93497652     -0.42738428     -0.00253444
N      -1.62061581     -1.65233597     -0.02352097
N      -1.64948112      0.62705774      0.17259335
O      -0.92332459      1.83199246     -0.10461984
H       3.59895591      0.49204162      0.24461364
H       2.82002838     -0.90167473      1.00834480
H       3.05565592     -0.85956048     -0.74358998
H       1.48539617      1.12254224     -0.87721247
H       1.22476175      1.02230233      0.84915329
H       0.65589833     -1.37894166     -0.75678308
H      -2.61418874     -1.50706426      0.08689195
H      -1.26920400     -2.31152285      0.65898078
H      -1.59928705      2.49508227      0.05567888
