17
b3lypvtz=-191973.53602323
C       2.75884480      0.03338911      0.08546482
N       1.63032055     -0.09563321     -0.46191669
C       0.43910787      0.01681213      0.35903865
C      -0.48517229     -1.22120447      0.20373556
C      -1.83507061     -0.65084199     -0.29634672
N      -1.84741140      0.77804438      0.04486433
C      -0.45581104      1.19694912     -0.11650999
H       2.89124077      0.21568251      1.15975019
H       3.65953499     -0.03773429     -0.52026275
H       0.70614788      0.15942208      1.41549816
H      -0.60045288     -1.72646382      1.16330939
H      -0.05061887     -1.93422191     -0.49614210
H      -2.70208079     -1.15530805      0.12873118
H      -1.90088181     -0.74482692     -1.38296135
H      -2.12089226      0.88746775      1.01534823
H      -0.25262463      1.37172577     -1.17584219
H      -0.25675330      2.12259281      0.42246427
