17
b3lypvtz=-217669.05298971
C      -0.01800022      2.30434604     -0.13403857
C      -0.01648585      1.14560265      0.50934292
C      -0.01745372     -0.20339455     -0.15196458
C       1.21928787     -1.02860716      0.19552277
O       2.35655409     -0.37549744     -0.35263307
O      -1.12264146     -0.99672799      0.27971618
C      -2.37348762     -0.58686022     -0.23914549
H      -0.00943987      3.24920289      0.39362988
H      -0.01236302      2.34953676     -1.21678531
H      -0.01862809      1.12351873      1.59580158
H      -0.04936986     -0.07579280     -1.24217701
H       1.29162045     -1.12309552      1.28531997
H       1.08493787     -2.03030738     -0.22517739
H       3.14270336     -0.86680446     -0.10119784
H      -2.38175797     -0.62785990     -1.33538625
H      -2.63685576      0.42863074      0.07234039
H      -3.11785221     -1.28140939      0.14611882
