12
b3lypvtz=-249556.68793136
N      -2.55481509     -0.70830591      0.11425099
C      -1.91900368      0.32366212      0.45474826
O      -0.59433536      0.61750537      0.36394985
C       0.25564163     -0.36484622     -0.19799088
C       1.69977636      0.09195675     -0.24032460
O       2.56751331     -0.61129743     -0.68696041
O       1.90587780      1.32077384      0.25508927
H      -1.97793170     -1.43910173     -0.29565686
H      -2.43036654      1.16980057      0.90343173
H      -0.03657084     -0.60395066     -1.22467496
H       0.22820787     -1.29285351      0.38058780
H       2.85610624      1.49665681      0.17354981
