14
b3lypvtz=-201263.30361269
C      -3.09730633     -0.65481186      0.00049626
N      -1.83372172     -0.53108685     -0.00099659
N      -1.44541722      0.82345092     -0.00021990
C      -0.17715530      0.99981342      0.00020316
C       0.88357084     -0.01376466     -0.00014470
N       2.09144429      0.37835794      0.00074773
C       3.13535289     -0.62228615      0.00021539
H      -3.76293848      0.20795694      0.00296548
H      -3.51243254     -1.65621930      0.00071473
H       0.16506865      2.03046467      0.00084730
H       0.59052831     -1.06461565     -0.00116551
H       3.77000972     -0.47041610      0.87621169
H       3.77106265     -0.46819945     -0.87463498
H       2.76329326     -1.65423886     -0.00127306
