15
b3lypvtz=-193613.41552983
O       2.19196635      1.03413717     -0.81736503
C       1.10750940      0.28775421     -0.45979696
C       1.14989091     -0.96606030     -0.00314087
C      -0.24112074     -1.50437788      0.23718912
C      -1.15158879     -0.30382005     -0.02993499
C      -0.98939028      0.93238898      0.80579666
C      -0.27738841      0.83075535     -0.52777699
H       1.91882669      1.94721693     -0.94472973
H       2.05562244     -1.51934711      0.19536737
H      -0.37199739     -1.89530051      1.25130590
H      -0.48177195     -2.32712152     -0.44446514
H      -2.11905205     -0.47599622     -0.47936750
H      -1.84169147      1.59657565      0.86437242
H      -0.38269021      0.88696503      1.70084884
H      -0.56722452      1.47623026     -1.34830309
