14
b3lypvtz=-203706.7263387
C       2.17061360     -0.59975014     -0.45658437
C       1.06787214     -0.07162063      0.45072151
C       0.57245324      1.30630438      0.11847288
C      -0.72736607      1.26105336     -0.15501727
C      -1.19426972     -0.12398790     -0.02299869
N      -2.37009122     -0.55122055     -0.19813004
O      -0.11083571     -0.89718077      0.33063172
H       3.07547559     -0.00127315     -0.33737526
H       2.40562166     -1.63221706     -0.19977992
H       1.85974984     -0.55985144     -1.50054960
H       1.39745451     -0.12596876      1.49454136
H       1.21497885      2.17428791      0.11243547
H      -1.38539329      2.06743789     -0.43393289
H      -2.42047843     -1.55700614     -0.04396689
