15
b3lypvtz=-219526.45467075
C       2.87824014     -0.22735611      0.21908487
N       1.75353777     -0.77620679     -0.01216553
C       0.60828534     -0.02366557     -0.11338670
F       0.74186814      1.32747534      0.04719428
C      -0.59521816     -0.54267199     -0.35712544
C      -1.87640707      0.21702045     -0.47031150
C      -2.92926571     -0.24512067      0.54816558
H       3.75467991     -0.86355896      0.29071178
H       3.01294246      0.84575307      0.34961253
H      -0.61630244     -1.61879121     -0.46874338
H      -2.27996267      0.07612446     -1.47901908
H      -1.68784961      1.28392138     -0.35505267
H      -3.86241252      0.30365978      0.41356129
H      -3.14709081     -1.30885531      0.43628827
H      -2.58340078     -0.08131786      1.56950172
