12
b3lypvtz=-200478.5641351
C       3.69567262     -0.43547670      0.14878379
C       2.54678652     -0.27011562     -0.17149872
C       1.21237589     -0.07574858     -0.59034968
C       0.16587232     -0.00059836      0.25042747
N      -1.11454060      0.18610696     -0.25146768
N      -1.99002732      0.22609246      0.65027790
N      -3.21641024      0.46453540      0.18266761
H       4.70543837     -0.58110516      0.44046143
H       1.02532639      0.01803761     -1.65434491
H       0.28336953     -0.08311230      1.32686659
H      -3.95242186      0.20656360      0.81667798
H      -3.36144163      0.34482070     -0.81471022
