15
b3lypvtz=-193625.38684182
C      -3.12348249     -0.12142339     -0.00000007
C      -1.82665024     -0.44526175      0.00000669
C      -0.77591025      0.55291010     -0.00000080
C       0.56466478      0.37258619      0.00000545
C       1.52542513      1.52587821      0.00000365
C       1.17135743     -0.96984697      0.00000517
O       2.36985664     -1.15940424     -0.00000911
H      -3.89630607     -0.87732857      0.00000605
H      -3.44783201      0.91235660     -0.00001163
H      -1.55522107     -1.49281353      0.00001878
H      -1.13590466      1.57879776     -0.00001304
H       2.18079997      1.48283035     -0.87208719
H       2.18078564      1.48284484      0.87210615
H       0.99994095      2.47963265     -0.00000781
H       0.47976325     -1.83008024     -0.00002328
