15
b3lypvtz=-191209.89901154
C      -0.52344788     -1.35209230      0.05377509
C       0.90726701     -0.95903617     -0.38186603
C       1.10170596      0.46080493      0.12280694
N       2.22666494      0.94257990      0.45106710
C      -0.25328254      1.07470545      0.24407313
C      -1.25295505     -0.02734960      0.20212554
N      -1.09257197      0.84253142     -0.96752385
H      -1.01523839     -2.01457077     -0.65956180
H      -0.50404995     -1.85784616      1.02185075
H       0.98617730     -0.95090805     -1.47000617
H       1.68212095     -1.61733363      0.00385381
H       2.13208529      1.91006926      0.76480766
H      -0.39491378      1.98019497      0.81922960
H      -2.16840986      0.02918889      0.77688194
H      -1.83115205      1.53906185     -0.98151369
