17
b3lypvtz=-217694.23496372
C      -1.08999544      1.40499717      0.20215096
C      -0.36093977      0.05986088      0.17226613
C      -1.06348541     -0.90702941     -0.77925344
O      -0.43394402     -0.56710343      1.46378595
C       1.12382415      0.27751636     -0.20434822
C       1.99538049     -0.92893751      0.04817901
O       3.00778296     -0.89751477      0.70010002
H      -0.62897116      2.07932782      0.92748900
H      -2.13219538      1.25743515      0.48590097
H      -1.06141209      1.89449315     -0.77296869
H      -1.06983406     -0.51400384     -1.79626096
H      -0.57789159     -1.88182991     -0.78502900
H      -2.09438950     -1.05124755     -0.45642732
H      -0.01452767      0.00675700      2.11441074
H       1.54464120      1.10923930      0.36450227
H       1.19424011      0.53470085     -1.26700597
H       1.66181719     -1.87686126     -0.41739146
