18
b3lypvtz=-181879.09788731777
C       2.69830153     -0.83933712     -0.39639251
N       1.33469610     -0.56598102     -0.82687582
C       0.71935831      0.55576611     -0.12941782
C      -0.68890461      0.79843258     -0.62451916
C      -1.71718470      1.47763664      0.29405363
C      -1.82134722      0.05975176     -0.05858153
C      -2.47175663     -1.07796846      0.06996664
H       3.34239844      0.00054153     -0.66613882
H       3.07579196     -1.72241123     -0.91240972
H       2.80398191     -1.00275535      0.68820775
H       0.76126145     -1.39070201     -0.69564746
H       0.69803079      0.41778161      0.96525274
H       1.32907849      1.44479774     -0.32048370
H      -0.74907029      1.05266134     -1.67803350
H      -1.39792976      1.74137102      1.29648766
H      -2.40863620      2.18214103     -0.15289454
H      -3.36301185     -1.15329130      0.68149632
H      -2.14505771     -1.97843485     -0.43683931
