14
b3lypvtz=-250312.9069904
O       2.49469525     -0.34662868     -0.57168561
C       1.75115774     -0.66138369      0.59387444
C       0.26707240     -0.81034092      0.28892952
N      -0.20591815      0.42669992     -0.32384428
C      -1.43082002      0.70105143     -0.32240057
O      -1.92891021      1.83566921     -0.86893420
O      -2.41289538     -0.05776001      0.20102781
H       2.01203457      0.36801375     -1.00559541
H       1.88769021      0.10879736      1.36440023
H       2.14909108     -1.60029291      0.98181814
H       0.13039429     -1.63950182     -0.41262210
H      -0.28198341     -1.05490516      1.20406935
H      -1.17624398      2.33119050     -1.21684443
H      -3.25546439      0.39939102      0.08790712
