12
b3lypvtz=-249569.99608953
C      -2.23737588     -0.78584618      0.41101046
C      -1.17070134      0.08097599     -0.18152061
N      -1.22470763      1.23923222     -0.65504562
O       0.03744477     -0.61833514     -0.23247992
C       1.19173654     -0.00112301      0.12169973
O       1.31354774      0.93230255      0.85719250
O       2.19521289     -0.68409466     -0.45346498
H      -3.21118733     -0.30708858      0.34030033
H      -2.00993985     -0.98817643      1.45917376
H      -2.26808191     -1.74607825     -0.10547216
H      -2.16370002      1.62063070     -0.58258444
H       3.01411304     -0.27510823     -0.14343005
