18
b3lypvtz=-181883.90547585
C      -1.21919653      1.62002638     -0.17823254
C      -0.71282393      0.19725978     -0.07539837
C      -1.20650960     -0.65732523      1.03016575
N      -1.74766451     -0.82700790     -0.33260197
C       0.66072282      0.00011938     -0.65177115
C       1.90239606      0.21004343      0.17530603
C       1.55084338     -1.16752374     -0.32184685
H      -0.58541495      2.30139836      0.39318738
H      -1.22045793      1.95227586     -1.21911181
H      -2.23919759      1.69090258      0.19712999
H      -1.90387321     -0.24052048      1.74704531
H      -0.56731890     -1.43265048      1.43294283
H      -1.31388439     -1.63909623     -0.76200302
H       0.73116079      0.34835389     -1.67737132
H       2.74345628      0.72309262     -0.27025966
H       1.76687919      0.40399521      1.23074445
H       1.21948009     -1.89484754      0.40604185
H       2.14130292     -1.58859587     -1.12366691
