12
b3lypvtz=-226260.86320826
C      -2.67069074     -0.16995291     -0.00004408
C      -1.41365007     -0.60881245     -0.00002806
C      -0.27760071      0.33409729     -0.00011097
O      -0.38212734      1.54490830     -0.00020473
C       1.12880675     -0.31414154     -0.00012255
N       2.11836242      0.59988466     -0.00005707
O       1.27685491     -1.52277601     -0.00025101
H      -2.88388844      0.89179613     -0.00012454
H      -3.50948259     -0.85267345      0.00002274
H      -1.16528579     -1.66024820      0.00004763
H       1.88011584      1.57753007      0.00001970
H       3.07714677      0.30007809     -0.00007506
