17
b3lypvtz=-191928.13886916
C       1.98276191     -0.26784416     -0.24177157
C       0.70022963     -0.07436524      0.53605596
N      -0.24713874     -1.27916817      0.71523150
C      -0.74820430     -0.97797236     -0.70928034
C      -0.64593162      0.42982938     -0.09581072
N      -1.03561467      1.66136747     -0.71155780
C      -1.28896357     -0.22855900      1.13687565
H       2.63433246     -0.97087622      0.28103191
H       2.51581932      0.68320308     -0.31184983
H       1.83597545     -0.64076611     -1.25436809
H       0.92896253      0.36916063      1.50908312
H      -0.06026817     -1.26942926     -1.49872954
H      -1.74784063     -1.36503736     -0.90374974
H      -0.93050490      2.44412470     -0.07646204
H      -0.48305577      1.85598166     -1.53846529
H      -1.09385509      0.20775087      2.11738552
H      -2.31680383     -0.57749991      1.04638130
