15
b3lypvtz=-242839.3289392
C       2.72821350     -0.41178196      0.34126373
C       1.39927425      0.17187440     -0.04970220
N       1.09730060      1.38307696     -0.25914753
O       0.47780764     -0.81525739     -0.17081178
C      -0.83925764     -0.45427571     -0.61504758
C      -1.69433979      0.01696503      0.54916853
F      -3.00562926      0.15460861      0.09406338
H       3.47164803      0.36976076      0.47880484
H       3.07145945     -1.10420359     -0.42862103
H       2.62895899     -0.98052029      1.26655999
H       1.90370829      1.98669217     -0.14064575
H      -1.26267581     -1.36456665     -1.03606064
H      -0.77834022      0.31845376     -1.37911402
H      -1.68901442     -0.71911729      1.35531473
H      -1.35757162      0.98278022      0.92196334
