15
b3lypvtz=-214516.59116333
C      -3.16784267     -0.26150884      0.23082151
O      -1.80674991     -0.37993354     -0.15937133
C      -1.06399898      0.76345951     -0.03946635
C       0.26887928      0.70813129     -0.01533959
N       0.98256342     -0.48228235     -0.07377944
C       2.35309820     -0.61895419     -0.01971606
N       3.26382952      0.26103322      0.09355232
H      -3.64112418     -1.21720968      0.01923298
H      -3.67274507      0.52289050     -0.34149132
H      -3.25599546     -0.04125730      1.29849327
H      -1.59919519      1.70332777     -0.00589002
H       0.83977811      1.62109055      0.03019155
H       0.43639593     -1.32441915     -0.14844988
H       2.65257498     -1.66373445     -0.09169237
H       2.89430002      1.20800466      0.15880675
