17
b3lypvtz=-191960.85414461
C      -0.06142681      1.76295624     -0.42643891
C       0.06059750      0.30590823      0.02880455
C       1.47187983      0.02024360      0.46087000
N       2.31872277     -0.78029457     -0.03320526
C      -0.64572255     -0.69092391     -0.92745289
N      -1.84401908     -0.63776465     -0.05734063
C      -1.04527243     -0.08563132      1.06002932
H       0.25846308      2.44712922      0.36266632
H       0.55872267      1.94975312     -1.30527113
H      -1.09709319      1.99263261     -0.67819518
H       1.80016329      0.61254868      1.32211288
H       1.92710454     -1.28475846     -0.83221653
H      -0.81581082     -0.35459171     -1.95215013
H      -0.15540312     -1.67066450     -0.95326521
H      -2.28483746     -1.52977752      0.12628866
H      -0.69428318     -0.83291752      1.77985567
H      -1.52501404      0.73335046      1.60033047
