13
b3lypvtz=-213769.90834066
N      -1.85494073      1.06032832      0.78742330
C      -0.90537219      0.39585005      0.28852358
C      -0.96411710     -0.79568022     -0.65184527
O       0.38392182     -1.17882065     -0.91820550
C       1.28818543     -0.38248479     -0.26768333
N       2.51607587     -0.61106961     -0.41589036
C       0.55477394      0.66884859      0.54121399
H      -2.76386330      0.70568151      0.48446461
H      -1.45768090     -0.53885711     -1.59247867
H      -1.49445271     -1.63708330     -0.19893542
H       3.07267144      0.04940261      0.11861423
H       0.83010916      1.67514587      0.22241543
H       0.79468927      0.58863871      1.60238341
