15
b3lypvtz=-214549.2097082
C      -3.14769771      0.32586500     -0.18742228
C      -1.86191836     -0.43396926     -0.15835380
N      -0.81396733      0.01758006      0.38430353
C       0.38687411     -0.79612816      0.36300778
C       1.64586808     -0.01677368     -0.02596159
N       1.52410402      1.32979692      0.03616309
O       2.66934691     -0.59880057     -0.33246274
H      -3.47720297      0.47835095     -1.21866097
H      -3.93627365     -0.24346673      0.31202405
H      -3.03673346      1.29043553      0.30357856
H      -1.87019313     -1.42313896     -0.63790762
H       0.32170261     -1.66512335     -0.30068099
H       0.57184168     -1.16983953      1.37509697
H       2.31902093      1.90198877     -0.18822950
H       0.63953728      1.73905402      0.28455151
