14
b3lypvtz=-201301.03588286
N       2.24327004     -0.53615443     -0.12011157
C       0.91745796     -0.09576803     -0.22336952
C      -0.16275175     -0.64451216      0.67685154
C      -1.39005392      0.21231318      0.33884024
N      -2.57173546      0.21091963      0.81579854
N      -0.97645724      1.06610088     -0.65652011
C       0.39308850      0.88975293     -0.96068827
H       2.33048611     -1.54438388     -0.11853099
H       2.84941709     -0.14797838     -0.82955470
H      -0.37495380     -1.70150872      0.48972861
H       0.09870235     -0.54819186      1.73344220
H      -2.66801112     -0.49071035      1.54366449
H      -1.55374549      1.81818059     -0.98621189
H       0.86528672      1.51204061     -1.70333858
