18
b3lypvtz=-181894.29188089
C      -3.23295236      0.01345022     -0.01380392
C      -1.77636659      0.00641992      0.00219510
C      -0.57498302      0.01013783      0.02411452
C       0.89642929     -0.00139522      0.02441818
C       1.39322872     -1.10818036     -0.93320664
C       1.42970823      1.36686479     -0.43621664
N       1.35221769     -0.20798344      1.41676826
H      -3.63521328      0.11828075      0.99588355
H      -3.61505895      0.84402104     -0.61094814
H      -3.63003180     -0.91153799     -0.43697818
H       2.48556345     -1.12642284     -0.94308494
H       1.04277641     -0.94070460     -1.95276418
H       1.03369360     -2.08446174     -0.60629197
H       2.52238420      1.36254370     -0.42545323
H       1.09822621      1.59217283     -1.44944652
H       1.07988227      2.14873160      0.23507050
H       0.96612510     -1.07200343      1.78066758
H       2.36244480     -0.30671206      1.42707366
