13
b3lypvtz=-213778.8145889
C       2.05068271     -0.77300020     -0.00000020
C       0.57937899     -0.51326772      0.00000407
C      -0.46695724     -1.41094825      0.00001149
N      -1.61584161     -0.69622311     -0.00001659
H      -2.55926945     -1.03591926     -0.00003646
N      -1.39446915      0.64081114      0.00001637
C      -0.07780247      0.74004241      0.00000789
O       0.55159481      1.93895664      0.00000462
H       2.25893546     -1.84297009     -0.00000159
H       2.53386849     -0.33820325      0.87766246
H       2.53387096     -0.33820024     -0.87766018
H      -0.46709427     -2.48821458      0.00001183
H      -0.12792124      2.62423652      0.00001027
