12
b3lypvtz=-249690.07487801
C      -0.73764638      1.69432706     -0.19606516
N      -0.24107434      0.32724266     -0.11702927
N      -0.88586431     -0.57913700     -0.84895201
N      -0.45814762     -1.75882491     -0.78157783
N       0.82783544      0.17103074      0.70657567
C       1.42932515     -0.91280659      0.93623496
F       2.46537167     -0.83202954      1.78899331
H      -1.04938321      2.03699629      0.79029643
H      -1.58333116      1.70079283     -0.87552815
H       0.04452784      2.35569910     -0.56802087
H      -1.06800493     -2.29644066     -1.39876534
H       1.25639184     -1.90674999      0.56373827
