14
b3lypvtz=-201287.48917696
C      -1.52264321     -0.36961140     -0.02501856
C      -0.14562291     -1.03698535      0.00126556
N       0.87813057     -0.07825254     -0.36570047
C       1.79139780      0.16294010      0.47538334
C       2.82714480      1.11992054      0.18277710
N       3.67840556      1.87463375      0.00323946
N      -1.60833265      0.66394743      1.00590585
H      -2.26606581     -1.13740991      0.19596271
H      -1.71505547     -0.00624960     -1.04165139
H       0.03002215     -1.47629657      0.99105108
H      -0.12912241     -1.83102092     -0.75007402
H       1.86347625     -0.31995495      1.45497221
H      -2.57069586      0.93723362      1.15886486
H      -1.11103883      1.49710582      0.71387727
