11
b3lypvtz=-241309.46380998
O      -2.50792689      1.05869584      0.00222101
C      -2.41409773     -0.14286444      0.00004655
N      -1.21225792     -0.90440503      0.00012129
C      -0.12198668     -0.22387455     -0.00012732
C       1.15628812     -0.89130477      0.00024830
C       2.33030463     -0.25880055     -0.00013296
F       2.43238211      1.07252240     -0.00089201
H      -3.29986846     -0.79407080     -0.00213392
H      -0.13652385      0.86741167     -0.00075434
H       1.16338931     -1.97256027      0.00086552
H       3.29725636     -0.74363350      0.00014388
