15
b3lypvtz=-191197.68480946
C      -2.36366636      0.98629975      0.66741766
C      -1.11575186      0.54648844      0.80417718
C      -0.45577259     -0.43361416     -0.07935197
C      -1.11916182     -1.42541826     -0.69563379
C       0.99147899     -0.32541504     -0.25772668
N       1.68245291      0.57964215      0.32150168
N       3.01739985      0.64915272      0.05128180
H      -2.78389578      1.69770192      1.36559223
H      -3.00066919      0.66778262     -0.14832428
H      -0.49640616      0.94473915      1.59833926
H      -2.17854517     -1.57755198     -0.54821646
H      -0.60847744     -2.11582480     -1.35439994
H       1.46359644     -1.06324194     -0.91616810
H       3.51523664      1.08859291      0.80925588
H       3.45228155     -0.21943347     -0.24984446
