15
b3lypvtz=-212101.11988048
C      -2.06509690      0.81211633     -0.51030174
C      -1.75047304     -0.16530131      0.58676696
N      -2.66725809     -0.58533849      1.36171800
N      -0.42266681     -0.63297379      0.77338194
N       0.40999639     -0.14744663     -0.03646497
N       1.63230375     -0.61540001      0.10852417
C       2.72856363      0.03126629     -0.57668738
H      -1.48495325      1.72856069     -0.39523260
H      -3.12600551      1.04211546     -0.47668617
H      -1.80857800      0.39778677     -1.48626362
H      -2.26099834     -1.23843469      2.03464870
H       1.79377529     -1.21322062      0.91414023
H       2.33743004      0.50196384     -1.47523073
H       3.21101034      0.79580194      0.03968991
H       3.47295050     -0.71149577     -0.86200270
