20
b3lypvtz=-182673.49834389
C      -2.43111868     -0.89558422     -0.04703662
C      -1.62810062      0.37195946     -0.02419048
C      -0.30218732      0.54115152     -0.00679635
C       0.28946597      1.92853258      0.01794493
C       0.68894194     -0.61016573      0.00628254
C       1.64909537     -0.57550693     -1.18710959
N       1.48277103     -0.54595562      1.25040612
H      -1.82687993     -1.79864411      0.00937037
H      -3.03048389     -0.95591831     -0.96049293
H      -3.13913491     -0.91498285      0.78651360
H      -2.23408578      1.27483734     -0.02787418
H       1.01694697      2.02318345      0.82504059
H      -0.48547257      2.68276171      0.15099005
H       0.81786237      2.15512393     -0.91215975
H       0.12842864     -1.54734658     -0.06336576
H       1.09854033     -0.57801491     -2.12846023
H       2.29740292     -1.45502941     -1.17576855
H       2.28589941      0.30807563     -1.15421049
H       0.87892781     -0.67350088      2.05471923
H       2.16189993     -1.29874607      1.26875852
