15
b3lypvtz=-214535.00118061
C      -1.29932557      0.98457925      0.39598793
C      -0.12043767      0.35414371     -0.39691952
N      -0.96471437     -0.83434705     -0.56705643
C      -2.02403217     -0.36216685      0.16214645
O      -3.08159636     -0.83910732      0.47746399
C       1.17288308      0.10922610      0.35953140
N       2.03049470     -0.80143539     -0.40532018
H      -1.78297088      1.84106295     -0.06847873
H      -1.09296651      1.19921658      1.44343049
H       0.08864574      0.85483789     -1.34714218
H      -0.74207758     -1.75129874     -0.92340706
H       1.63770273      1.07910039      0.58837604
H       0.93617517     -0.37044700      1.31185955
H       2.79479857     -1.14118315      0.16488303
H       2.44742116     -0.32218136     -1.19535478
