15
b3lypvtz=-216940.25243629
C       2.30690693     -0.16668025     -0.04209478
C       0.83709893     -0.56295542     -0.12201635
C      -0.10862792      0.60694643      0.03215511
O       0.29062891      1.74652152      0.20595648
C      -1.59338924      0.40751212     -0.02334737
C      -2.19328896     -0.77141199     -0.20878412
O      -2.28705843      1.55574323      0.13432672
H       2.53740801      0.29788606      0.91587258
H       2.94146792     -1.04523325     -0.15972030
H       2.56374010      0.54981355     -0.82146692
H       0.61688942     -1.05157458     -1.07526030
H       0.58979062     -1.29970414      0.64749420
H      -1.61586563     -1.67252264     -0.33178862
H      -3.27056343     -0.84645598     -0.23943778
H      -1.61513719      2.25211535      0.24870727
