14
b3lypvtz=-203687.12778083
C       3.01694240      0.35246255     -0.12061430
C       1.88683176     -0.12758567     -0.63858396
C       0.60668567     -0.04606205      0.05120800
N      -0.45835557     -0.51588323     -0.45681315
C      -1.68800204     -0.39188195      0.28903614
C      -2.79217673      0.19171749     -0.57723474
O      -3.72229821      0.81431601     -0.13915254
H       3.95878373      0.28312798     -0.64685005
H       3.03348127      0.83214467      0.85096056
H       1.87100757     -0.60795676     -1.60970010
H       0.61364266      0.44206956      1.03600163
H      -1.61140374      0.19145989      1.21507563
H      -2.03154671     -1.40042238      0.55812609
H      -2.68359206     -0.01730612     -1.65955922
