10
b3lypvtz=-277111.46056189
C      -0.11316257     -0.58579392     -0.16538021
C      -1.07635521      0.10286615      0.45480811
O      -2.35485283     -0.27381993      0.47256056
F      -0.87883745      1.23576484      1.12265718
C       1.30657491     -0.26027594     -0.24354988
O       2.11285071     -0.94523859     -0.83058860
O       1.66635752      0.88168169      0.39747924
H      -0.41131802     -1.49022991     -0.67045049
H      -2.87226135      0.36792309      0.97543245
H       2.62100428      0.96712251      0.26133047
