18
b3lypvtz=-205194.52594991
O       3.25579342      0.36581599      0.15016383
C       1.90757567      0.77489310     -0.06064285
C       0.94717120     -0.39795869     -0.23355784
C      -0.48036598      0.03842587     -0.51329477
C      -1.32562111      0.68077111      0.61708143
N      -2.49465616     -0.09645526      0.14162918
C      -1.59701331     -1.03138140     -0.57926100
H       3.29770271     -0.13398597      0.97114801
H       1.92696253      1.37902734     -0.96930187
H       1.56819365      1.42685973      0.75416705
H       0.96870638     -1.01641997      0.67165507
H       1.31260547     -1.02661030     -1.05084855
H      -0.51338225      0.66617978     -1.40581926
H      -1.46421020      1.76342378      0.60374145
H      -0.96123445      0.38422525      1.60956991
H      -3.06638876     -0.51206563      0.86630091
H      -1.95305971     -1.33611890     -1.56509444
H      -1.32887908     -1.92882584     -0.00763627
