14
b3lypvtz=-227011.28527831
C      -0.68520256      1.69285411      0.05774443
C      -0.30608778      0.23635468      0.01003822
C      -1.36753332     -0.75599454     -0.05236474
O      -2.55716573     -0.48856462     -0.02456846
C       0.99124036     -0.16239804      0.00897318
N       2.07565519      0.67946479     -0.12646014
O       1.33556170     -1.47351516      0.12690978
H      -0.52035528      2.20248239     -0.89670399
H      -0.13685635      2.23951388      0.82992926
H      -1.74790536      1.76653901      0.28110512
H      -1.03548705     -1.80458674     -0.13355560
H       2.86281929      0.47316617      0.47245860
H       1.85850062      1.66251557     -0.16260073
H       2.14486026     -1.63077950     -0.37533691
