18
b3lypvtz=-181888.47437861
C       2.93639279     -0.75682493      0.24941239
C       2.43613299      0.45342990      0.03265384
C       0.99592958      0.80959546     -0.20586477
C       0.00493409     -0.35368748     -0.21328090
C      -1.41329903      0.09779755     -0.46192585
C      -2.31979296      0.49517758      0.64137450
N      -2.48186967     -0.81005809     -0.02254320
H       2.31894392     -1.64523162      0.27467715
H       3.99632144     -0.90093661      0.41222213
H       3.11893765      1.29896639      0.02272227
H       0.69173872      1.54112393      0.55249421
H       0.93146831      1.35221106     -1.15732268
H       0.03480519     -0.88639474      0.73974703
H       0.28762567     -1.07792747     -0.98299345
H      -1.56866577      0.61163612     -1.40708342
H      -1.97027561      0.43980952      1.66564055
H      -3.05321303      1.27084619      0.45539661
H      -3.26397227     -0.78195977     -0.66732840
