14
b3lypvtz=-201292.66336908
C       1.66780532     -1.31899829      0.00003690
C       0.31976087     -0.68531888      0.00001847
C      -0.94588796     -1.22389042      0.00001767
N      -1.85924077     -0.21953043     -0.00004517
N      -1.23367438      0.91737737     -0.00001760
N       0.09071840      0.65428688      0.00001516
C       1.03405272      1.75530981      0.00003567
H       1.56224274     -2.40226260      0.00001626
H       2.24988875     -1.04296569      0.88219757
H       2.24992551     -1.04293420     -0.88208952
H      -1.23919143     -2.25943849     -0.00011563
H       2.04722868      1.36299249     -0.00000567
H       0.88679562      2.37032960     -0.88624750
H       0.88684493      2.37026785      0.88637039
