17
b3lypvtz=-215276.39815212
C      -0.16328775      1.89898804     -0.05514028
N       0.40520148      0.62931421      0.37366135
C       1.28583655      0.00253566     -0.60303550
N       2.11586554     -0.99694493      0.05839921
C      -0.52150242     -0.27000904      1.01882292
C      -1.68352466     -0.81395276      0.21227787
O      -1.88761783     -0.61598829     -0.95847776
H      -0.69778198      2.35390132      0.78121552
H       0.64435806      2.57640473     -0.33813792
H      -0.85744312      1.81826446     -0.90042523
H       1.85695769      0.81729370     -1.06492455
H       0.73729627     -0.50472032     -1.40743291
H       2.56410639     -1.60127758     -0.61764119
H       2.83517477     -0.55465003      0.61741280
H       0.03289652     -1.14127003      1.38545632
H      -0.94961321      0.20564554      1.91076195
H      -2.37483428     -1.45582667      0.80672341
