15
b3lypvtz=-214530.55886534
O       2.45761649     -0.86072253      0.78834135
C       1.68874433      0.30271637      1.10193297
C       0.35814880      0.30629801      0.40778807
N      -0.12751608      1.31836263     -0.20174358
C      -1.46389321      0.90832446     -0.67369298
C      -1.49655522     -0.63366971     -0.53268632
N      -0.43134979     -0.83391454      0.45894679
H       2.78155635     -0.77187790     -0.11359314
H       2.21291845      1.22649720      0.85418544
H       1.53492279      0.27010920      2.18196850
H      -2.22240038      1.37896278     -0.04044343
H      -1.63381756      1.24818935     -1.69476862
H      -1.25817428     -1.12984044     -1.48035488
H      -2.45386417     -1.01171596     -0.17667601
H       0.05366348     -1.71781891      0.48899584
