14
b3lypvtz=-203707.68063
C       2.57785806     -0.43874130      0.00541738
C       1.13041671     -0.06689158      0.00220768
C       0.60573477      1.17895366      0.00051743
O      -0.77649079      1.11795891     -0.00295536
C      -1.10642814     -0.19399740     -0.00067509
N      -2.46267101     -0.46437463     -0.07979348
C       0.00964421     -0.97286034      0.00442135
H       3.21290709      0.44721050      0.01104856
H       2.83756023     -1.03090840     -0.87533776
H       2.83216572     -1.03836974      0.88274125
H       1.02921885      2.16624108      0.00584323
H      -2.70354392     -1.39211464      0.23234867
H      -3.03464918      0.23536248      0.37124620
H       0.04292441     -2.04914763      0.00674093
