18
b3lypvtz=-181916.37297918
N       2.74093639      0.38601227     -0.04956824
C       1.70798064     -0.64460164      0.00384601
C       0.26966022     -0.20749670      0.02081640
C      -0.21382999      1.03368524      0.00801156
C      -1.71922424      1.07369553      0.08499894
C      -2.12196489     -0.39776382     -0.17808412
C      -0.84821835     -1.22573316      0.10921487
H       2.66225620      1.00586772      0.74827647
H       2.62140451      0.96152135     -0.87518994
H       1.89601211     -1.26561129      0.88742874
H       1.85990393     -1.31858713     -0.84689389
H       0.39186209      1.93027448     -0.01399600
H      -2.04736304      1.41414965      1.07410337
H      -2.16512197      1.76176682     -0.63716231
H      -2.97619690     -0.71576330      0.41904901
H      -2.40047728     -0.51425177     -1.22658392
H      -0.86933076     -1.67587327      1.10890242
H      -0.71893669     -2.05276597     -0.59417538
