12
b3lypvtz=-223823.22204079
C       2.95417952     -0.30827407     -0.00003099
N       1.86525397      0.34445889      0.00001811
N       0.71145493     -0.36975105      0.00005136
C      -0.52166069      0.24273240      0.00008311
O      -0.70846416      1.43635846      0.00004996
C      -1.66826736     -0.74939930      0.00000218
N      -2.87481363     -0.38427609     -0.00007390
H       3.87725440      0.25511973     -0.00005930
H       3.00727130     -1.40038333     -0.00004518
H       0.75549188     -1.38405641      0.00004920
H      -1.43543889     -1.81653492      0.00002256
H      -2.90712727      0.64240269     -0.00006611
