15
b3lypvtz=-191226.99133422
N      -2.32281259     -0.05365126      0.08590200
C      -0.93723630      0.08331536      0.00288068
C      -0.26984734      1.26020745      0.10849495
C       1.16715671      1.24463810     -0.05321466
C       1.86064125      0.09914575     -0.08322554
C       1.15127118     -1.20395300      0.17544063
N      -0.25843715     -1.09921690     -0.22962633
H      -2.80966244      0.82613688      0.00298389
H      -2.70166034     -0.72840615     -0.56583672
H      -0.81380295      2.18908899      0.19029251
H       1.67905012      2.19008721     -0.18725328
H       2.93209974      0.07983486     -0.22424219
H       1.23340467     -1.47847644      1.24327105
H       1.60394948     -2.01896836     -0.39313008
H      -0.79768005     -1.92372651     -0.01539592
