17
b3lypvtz=-191966.5205426108
C      -1.48917437     -0.77675133      0.44587033
C      -0.21645752     -1.16577341     -0.33398124
C       0.66075176      0.09438160     -0.27886613
C       2.13373549      0.12394412     -0.31694844
N       1.34791465      0.48462597     -1.51704851
N      -0.03434547      1.13091321      0.46668788
C      -1.45917491      0.76143599      0.41633896
H      -1.42681705     -1.12533383      1.47947181
H      -2.39802730     -1.19477781      0.01234461
H      -0.43438911     -1.40230946     -1.37528656
H       0.28510816     -2.02989954      0.10198271
H       2.63386301      0.91777627      0.22697196
H       2.69601044     -0.79877928     -0.39568217
H       1.30990395      1.49703803     -1.59295744
H       0.28036148      1.12205343      1.43065483
H      -2.00460741      1.22953502      1.23482431
H      -1.88465581      1.13192106     -0.52013221
