17
b3lypvtz=-238589.91559269122
C       1.99038872     -0.51044316     -0.07092030
C       0.62285189     -0.57340923     -0.71825582
O      -0.33396266     -0.10841651      0.23523923
C      -1.65396354     -0.05711624     -0.24030410
N      -2.45445860      0.28960891      0.90774573
O      -1.84765033      0.89093151     -1.25299117
N       2.36303408      0.87911134      0.19578716
H       1.98181835     -1.15151222      0.82228368
H       2.71377440     -0.93717783     -0.77004533
H       0.38708101     -1.60518260     -1.00825601
H       0.59776898      0.05914019     -1.60810107
H      -1.90398515     -1.01608823     -0.71675418
H      -3.43673384      0.15541287      0.70528701
H      -2.20037614     -0.28332850      1.70251077
H      -1.78962423      1.75647458     -0.82580101
H       3.26998635      0.92490803      0.64365930
H       1.69405073      1.28708710      0.83832999
