16
b3lypvtz=-181144.52710818
C       1.14625882     -1.16531368     -0.12323957
C      -0.10281685     -1.60885711     -0.03469970
C      -1.35737856     -0.83874914      0.26847128
N      -1.46754062      0.49524270     -0.31251056
C      -0.54333374      1.49551957     -0.03741949
C       0.77876674      1.40489751      0.13845896
C       1.69412550      0.22257687      0.01895571
H       1.91367737     -1.91155615     -0.30826427
H      -0.25795872     -2.67779952     -0.13796990
H      -2.20878180     -1.41168917     -0.10263206
H      -1.46872858     -0.79490318      1.36444401
H      -2.41474252      0.83406388     -0.26617500
H      -0.98674897      2.48494399     -0.00394972
H       1.28716043      2.34352756      0.32303346
H       2.38161112      0.21149225      0.87690649
H       2.36056438      0.39924263     -0.83768664
