12
b3lypvtz=-221380.60230101
N       3.11454087     -0.39652037     -0.00017020
C       2.31646162      0.59093586      0.00027358
C       0.84021364      0.56038390      0.00012369
N       0.23944671     -0.57096733     -0.00003050
N      -1.09589763     -0.65244671     -0.00019526
N      -1.92147561      0.40402268     -0.00017583
N      -3.12315186      0.06700945     -0.00025863
H       2.58498572     -1.27252036     -0.00058153
H       2.74782635      1.59296426      0.00063805
H       0.30623140      1.50623722      0.00021478
H      -1.50260567     -1.58144173     -0.00021286
H      -3.65913255      0.93690914     -0.00023931
