13
b3lypvtz=-242073.15980756
C       1.76993110      1.07927179      0.23757436
C       1.19549091     -0.01308039     -0.60574839
C      -0.08129947     -0.35417434     -0.68884847
O      -1.06556424      0.35768566     -0.01398424
C      -2.11977026     -0.32798816      0.46723969
N      -2.33925786     -1.54755589      0.62146851
F      -3.03396590      0.56733756      0.81824070
H       1.00819010      1.56846793      0.84046019
H       2.25011623      1.83612332     -0.38777858
H       2.54140783      0.68553031      0.90364241
H       1.87670732     -0.58253919     -1.22676751
H      -0.45447797     -1.14457194     -1.32671479
H      -1.54740778     -2.12440666      0.36131611
