10
b3lypvtz=-308009.59494693
O       2.36672909     -0.02110413      0.03177528
C       1.07030643     -0.14341611      0.38081771
C       0.01539305      0.13865128     -0.37991870
C      -1.37982837     -0.02979222      0.09681732
F      -1.45122713     -0.49165461      1.36290998
F      -2.07549580     -0.89414883     -0.68025595
F      -2.06737953      1.13679364      0.06111181
H       2.44148450      0.30870278     -0.87206923
H       0.96751874     -0.51221826      1.39163096
H       0.11249902      0.50818647     -1.39281917
