18
b3lypvtz=-181914.46162925
C       1.26402406      0.80709052     -0.40585064
C       1.25832069     -0.75211464     -0.50417724
C      -0.02916142     -1.12607755      0.25328615
C      -0.05430405     -0.07467616      1.37972205
C      -0.02888436      1.10204755      0.38630802
C      -1.22891645      0.74653323     -0.51541632
N      -1.16984000     -0.74362071     -0.61406840
H       1.26153111      1.28880641     -1.38404481
H       2.14048891      1.16781428      0.13462942
H       2.13683067     -1.18675772     -0.02505288
H       1.21762840     -1.11039720     -1.53117481
H      -0.09524787     -2.17270915      0.54358854
H       0.81796430     -0.10293479      2.03485265
H      -0.96142958     -0.11936198      1.98497728
H      -0.08075878      2.10376295      0.80931720
H      -1.14235616      1.20466226     -1.50330894
H      -2.17182027      1.08108998     -0.07508230
H      -2.02159117     -1.14259427     -0.24070696
