12
b3lypvtz=-226242.11300555
C       3.05981088     -0.33276117     -0.00001489
C       1.86219571      0.25656014     -0.00000704
N       0.70113084     -0.51047059      0.00007071
C      -0.44305447      0.05220035      0.00008246
O      -0.68063625      1.37713037      0.00004509
C      -1.66206368     -0.79742894      0.00009662
O      -2.76542607     -0.29703899     -0.00000543
H       3.96753676      0.25324179     -0.00007273
H       3.14317163     -1.41101374      0.00003851
H       1.77390590      1.33892981     -0.00005733
H      -1.64923631      1.48078033      0.00002227
H      -1.48458693     -1.88227137      0.00001478
