16
b3lypvtz=-204445.53662831
C       2.75224056     -0.77104917     -0.01112886
C       1.64203442     -0.13395508      0.32977493
O       0.49641854     -0.24354757     -0.42091652
C      -0.57172418      0.57354070     -0.11099994
N      -0.21018816      1.92072185      0.01046695
C      -1.79264132      0.06147929      0.05214051
C      -2.12369227     -1.39811793      0.10075147
H       2.80601495     -1.38139884     -0.90153194
H       3.62673698     -0.69048458      0.61573024
H       1.55608062      0.49364331      1.20679483
H      -0.99690350      2.52497935      0.19517280
H       0.33246144      2.26040079     -0.77421572
H      -2.60852429      0.76697857      0.15847372
H      -2.80176364     -1.68112560     -0.70972713
H      -1.22800101     -2.01010901      0.01339094
H      -2.62518612     -1.66187708      1.03664273
