17
b3lypvtz=-217682.50104484
O      -3.12694153      0.10515789      1.06583649
C      -2.68044091      0.46183812     -0.17349233
C      -1.47175969      0.26036058     -0.69449771
C      -0.29935088     -0.39924524     -0.02878635
C       0.92682534      0.51990034      0.08050749
C       2.15636000     -0.17071358      0.66197849
O       2.60527208     -1.27808484     -0.11684786
H      -2.42724608     -0.35711224      1.54047189
H      -3.46479761      0.95772693     -0.72917645
H      -1.32224821      0.61927012     -1.70577350
H      -0.00792899     -1.29476371     -0.58446743
H      -0.55629058     -0.75286637      0.97668021
H       1.17293476      0.91458453     -0.91188479
H       0.68453627      1.38855520      0.70006131
H       2.96345348      0.55833603      0.79910310
H       1.92587050     -0.58657951      1.64505544
H       2.92195207     -0.94636426     -0.96276800
