16
b3lypvtz=-227754.79761564
C      -2.52203245      0.31809479     -0.21697618
O      -1.22815767      0.67492796      0.28021401
C      -0.23222493     -0.21410790      0.09929366
O      -0.62678411     -1.50942335      0.08871357
C       1.05714015      0.14513397     -0.01537090
C       1.55534326      1.55554777     -0.02041615
N       1.97745294     -0.96595973     -0.10106750
H      -3.15513965      1.18079083     -0.02676946
H      -2.48721558      0.11798195     -1.29010969
H      -2.91806090     -0.55451196      0.29995223
H       0.21351128     -1.99688293     -0.01435381
H       0.73024405      2.26460112      0.02072009
H       2.14075404      1.76940036     -0.92193698
H       2.21060839      1.75597926      0.83546683
H       2.52536755     -0.93264725     -0.95467061
H       2.63801562     -0.96961389      0.67015989
