17
b3lypvtz=-194383.43792105
C       0.05009413      1.56967285      0.42081957
C      -0.13280434      0.05758637      0.21759094
C       1.03911197     -0.54087436     -0.59608070
C       2.35394307     -0.45940193      0.13430533
O       3.36347610      0.02692600     -0.30586335
C      -1.44244473     -0.23895201     -0.45991538
C      -2.42950629     -0.95841224      0.05749040
H       0.04596620      2.09316421     -0.53779758
H      -0.75660116      1.97741315      1.03002058
H       0.99680755      1.79565201      0.91457617
H      -0.14433222     -0.42729192      1.19925829
H       1.14281610     -0.04936223     -1.56489142
H       0.83627664     -1.60305137     -0.77299955
H       2.34400670     -0.90151099      1.15527028
H      -1.56246964      0.19052990     -1.45211313
H      -2.35374293     -1.40167078      1.04392441
H      -3.35059715     -1.13041666     -0.48359486
