16
b3lypvtz=-227754.53234856
C       1.27907306      0.00224978     -0.18319029
C      -0.13828853      0.29844588      0.31032861
C      -1.21513785     -0.34662551     -0.58624535
O      -2.52022838     -0.28967333     -0.01912032
C      -0.41101732      1.77871833      0.45835035
O       0.39946620      2.65061224      0.26045629
N       1.57711163     -1.43125122     -0.06085002
H       1.35166291      0.27462386     -1.23859374
H       1.98231079      0.65126621      0.34684463
H      -0.26588190     -0.13527941      1.31341430
H      -0.91013412     -1.37190437     -0.80247189
H      -1.27752090      0.19215987     -1.53388145
H      -2.58976623     -0.96806443      0.65901039
H      -1.44677046      2.02683298      0.75868983
H       2.40992373     -1.66377940     -0.58752044
H       1.77519737     -1.66833147      0.90477912
