13
b3lypvtz=-211357.36466561
N      -2.04951834      0.28284945     -0.36478072
C      -1.06799358     -0.53131893      0.36243317
C       0.37106596     -0.14464381      0.19199659
C       1.21803333      0.65422455      0.92390521
N       2.42243939      0.73103838      0.29394768
N       2.37961910      0.02367560     -0.79191932
N       1.14330808     -0.50832471     -0.86325042
H       0.91528931     -1.11510522     -1.63367272
H      -1.96087582      1.25664648     -0.09794205
H      -1.88249099      0.24183057     -1.36346634
H      -1.21028434     -1.57312215      0.06549472
H      -1.31189653     -0.48211369      1.42389430
H       1.03330442      1.16416346      1.85355989
