17
b3lypvtz=-191976.59459225
C      -1.34894467      0.89788090     -0.18805530
N      -1.66731531     -0.32621080     -0.20753328
C      -0.76579824     -1.34220412      0.33728725
C       0.63849297     -1.39330921     -0.26762238
N       1.51950966     -0.34416772      0.23962634
C       1.21975659      0.99738580     -0.24606468
C      -0.08581537      1.54467378      0.34131491
H      -2.09321693      1.58603183     -0.59520044
H      -1.24403872     -2.30846548      0.16950125
H      -0.67244187     -1.21046386      1.42130510
H       1.08406646     -2.35223949      0.00455028
H       0.54449074     -1.37632602     -1.36585621
H       2.47977095     -0.57449026      0.02033628
H       1.16320167      1.04825867     -1.34638436
H       2.03768100      1.64955682      0.06537818
H      -0.14052229      2.61696480      0.14355330
H      -0.04897465      1.41873236      1.42917675
