15
b3lypvtz=-191223.65557543
C      -1.74860311      1.55935708      0.08529554
C      -0.89122143      0.53304968     -0.04009678
C      -1.42062318     -0.80605715     -0.08490423
N      -1.84447639     -1.87693832     -0.10794920
N       0.48364240      0.64021905     -0.20750806
C       1.40533348     -0.33007084      0.38650525
C       2.81024564     -0.13448831     -0.16327203
H      -2.81252450      1.38850124      0.10072734
H      -1.39358676      2.57948896      0.14016695
H       0.80384501      1.59491241     -0.12775437
H       1.41587031     -0.25422451      1.48181572
H       1.04432250     -1.32885896      0.14110270
H       3.49480883     -0.85751365      0.28093684
H       3.19114471      0.86353488      0.06712592
H       2.82401649     -0.26191056     -1.24587058
