16
b3lypvtz=-181131.27048109
C       2.87098205      0.00008891     -0.04299668
C       1.55335393      0.00002304      0.06276943
C       0.49695250      1.08842329      0.05660398
C      -0.55637702     -0.00005395     -0.34343592
C      -1.85967606     -0.00011658      0.38702658
N      -3.03115220      0.00005386     -0.09498584
C       0.49704534     -1.08846677      0.05650835
H       3.43444803      0.92387200     -0.08937263
H       3.43453627     -0.92363586     -0.08945896
H       0.62931481      1.92397525     -0.62986448
H       0.30289335      1.48728192      1.05599745
H      -0.72880847     -0.00000887     -1.42056068
H      -1.77549963     -0.00028710      1.47928909
H      -3.00064641      0.00021650     -1.11791603
H       0.30302329     -1.48742594      1.05586950
H       0.62948823     -1.92395270     -0.63002515
