17
b3lypvtz=-215290.4037557
C      -1.96852203     -1.27231487     -0.15412367
C      -1.47209176      0.12412573     -0.49386771
O      -2.34776344      1.13741688      0.01214619
C      -0.04194241      0.37823663     -0.00986240
N       0.89496849     -0.51490901     -0.66824314
C       2.13210383     -0.39014729     -0.41157514
N       2.73401182      0.47785496      0.47045037
H      -1.29691150     -2.02398711     -0.56745398
H      -2.00356622     -1.41344281      0.93147468
H      -2.97104480     -1.42939421     -0.55242760
H      -1.48454648      0.25786308     -1.57733193
H      -2.51527017      0.95203569      0.94216088
H      -0.01107015      0.24852811      1.08425675
H       0.18792941      1.43444470     -0.20996860
H       2.83424189     -1.06318757     -0.90085630
H       3.72647250      0.61541018      0.39204261
H       2.21464600      1.27266891      0.80281497
