11
b3lypvtz=-264634.61511304
O       0.90777047     -0.66014266     -1.49721757
C       1.23011202     -0.16630592     -0.45033352
O       2.52946162      0.04775431     -0.08154466
N       0.41795939      0.27356434      0.56271894
C      -0.97599045      0.27201241      0.66156184
C      -1.95489911     -0.13147614     -0.14266123
F      -1.82900433     -0.68414024     -1.35236194
H       3.06736778     -0.27313709     -0.81633988
H       0.90823434      0.65481919      1.35338238
H      -1.31579923      0.69168319      1.59752396
H      -2.98521250     -0.02473140      0.16507167
