18
b3lypvtz=-181884.56822626
C      -2.39505749      0.08593841      0.37880775
C      -1.15052887      0.26711928     -0.47295169
C       0.02807617      1.15215411      0.07698270
C       0.96600212     -0.05249635     -0.07817674
C      -0.15659620     -0.89753173     -0.56500409
N       0.39374214     -1.09997775      0.80167536
C       2.41952074     -0.02115581     -0.42621233
H      -2.12951790     -0.29659925      1.36410211
H      -2.92326300      1.03310856      0.50903297
H      -3.08928991     -0.61877854     -0.08558977
H      -1.41999071      0.60346225     -1.47577613
H      -0.07974105      1.51863551      1.09827624
H       0.27338635      1.98096253     -0.58652104
H      -0.15645823     -1.71256087     -1.27717325
H       1.01337696     -1.90638098      0.75780187
H       2.78517311     -1.01823596     -0.68252847
H       2.60505465      0.63414910     -1.27974716
H       3.01611113      0.34818748      0.41254845
