12
b3lypvtz=-202895.89799785
C      -0.89335230      1.92646236      0.99724212
C      -0.53474990      0.90810876      0.46692838
C      -0.03676297     -0.27637140     -0.14777483
C      -0.85089800     -1.21655804     -0.67124520
O      -2.19477098     -1.10845338     -0.65274102
N       1.33898388     -0.55008843     -0.25331852
C       2.20241889      0.26154678      0.20349749
H      -1.23302059      2.81866292      1.46096535
H      -0.41218920     -2.09576024     -1.12600621
H      -2.59004235     -1.87729086     -1.07284512
H       3.25250998      0.00657899      0.09845591
H       1.95197354      1.20296254      0.69684166
