15
b3lypvtz=-214530.78052678
C       2.47845605     -0.85863597     -0.03211918
C       1.32995790     -0.16000630      0.00259052
O       1.35102388      1.22391599      0.07667860
C       0.01244229     -0.74462828     -0.02397469
C      -1.19505783     -0.11607189     -0.01885562
N      -1.39873925      1.24720042     -0.14221414
N      -2.37292452     -0.85320950      0.00110929
H       3.44152287     -0.36574044     -0.00555166
H       2.46803522     -1.93550318     -0.08840088
H       2.26891127      1.51250277      0.07842208
H      -0.00314001     -1.82405422     -0.08057835
H      -2.12786030      1.62341019      0.44589925
H      -0.54569629      1.78391004     -0.10185125
H      -2.34310103     -1.72692908      0.49697285
H      -3.22803123     -0.33894455      0.12519218
