17
b3lypvtz=-217689.71806267
C      -2.16152590     -0.73780062      0.40093766
O      -1.46778805      0.32054714     -0.24047550
C      -0.18387826      0.58524111      0.26209693
C       0.24875022      1.94122028     -0.29763456
C       0.84377739     -0.50395859     -0.09363222
C       2.22656467     -0.35989592      0.51423687
O       0.56902724     -1.42255465     -0.82766396
H      -2.23305613     -0.56189447      1.48201448
H      -3.16552569     -0.75112840     -0.01872771
H      -1.68634903     -1.70351134      0.22083531
H      -0.21435549      0.64483725      1.36296977
H      -0.48816741      2.69420280     -0.02255272
H       0.30068515      1.89283060     -1.38566070
H       1.21998687      2.24669497      0.08972925
H       2.83241752      0.29141494     -0.12073050
H       2.19877684      0.08509538      1.50946679
H       2.70486706     -1.33619449      0.55206079
