18
b3lypvtz=-205198.52137175
C      -2.08184510     -1.25716246     -0.24332841
C      -1.12708463     -0.24154436      0.35136030
N      -1.42506057      1.17845229      0.03081405
C       0.01924796      1.47060679     -0.14035189
C       0.27764351     -0.04580223     -0.28192951
C       1.47785272     -0.65122227      0.41379730
O       2.71872165     -0.21342159     -0.13645195
H      -1.72458894     -2.27632937     -0.07555634
H      -2.18977338     -1.09393409     -1.31634027
H      -3.07168758     -1.17313617      0.21093027
H      -1.02645401     -0.41773183      1.43201383
H      -1.89334972      1.70168633      0.76047977
H       0.50987328      1.88076162      0.74977300
H       0.25258679      2.10909181     -0.99314389
H       0.26239065     -0.34881146     -1.33277371
H       1.40949709     -1.74709639      0.40041180
H       1.50199601     -0.34132564      1.46026829
H       2.76564028     -0.50516200     -1.05214963
