13
b3lypvtz=-237034.5947761
C      -1.70405112      0.43275264      1.87158882
C      -1.12900730      0.14185548      0.70155639
N      -1.75843188     -0.24795152     -0.46758471
O       0.23350876      0.35513996      0.59613985
N       0.83759624     -0.43195745     -0.39525611
C       2.09264223     -0.25106714     -0.43944325
O       2.78360814      0.58292003      0.36137076
H      -1.10375255      0.77132748      2.69952666
H      -2.77595043      0.38250765      1.98367801
H      -1.16567485     -0.79861508     -1.07062879
H      -2.66284562     -0.66402376     -0.31652125
H       2.63404436     -0.82069767     -1.18563110
H       3.71831401      0.54790938      0.13520472
