15
b3lypvtz=-191228.90051297
C       1.68999556     -1.09669819     -0.36736312
C       0.49700783     -0.55577524      0.41056297
N      -0.75178002     -1.27399278      0.10110835
C      -1.74264767     -0.33992767     -0.12508603
C      -1.28227739      0.92574019     -0.18996694
C       0.14353058      0.91244207      0.08831234
N       0.92309816      1.92252492      0.05690223
H       2.58393125     -0.50857980     -0.15314861
H       1.49635684     -1.05209983     -1.43878796
H       1.89799804     -2.13274527     -0.09597662
H       0.69548970     -0.62331576      1.48626021
H      -0.97891531     -2.09188211      0.64404822
H      -2.75911704     -0.67834310     -0.26675157
H      -1.84700372      1.80547529     -0.44617829
H       1.88051221      1.66167928      0.29281583
