15
b3lypvtz=-214531.96826417
C      -1.90315992      1.50073974      0.19237503
N      -1.71126634      0.46360331     -0.49751621
C      -1.50942630     -0.79707685      0.18747543
C      -0.14417699     -1.39414341     -0.17714750
N       0.97961551     -0.65435196      0.36028773
C       1.78347710      0.17855856     -0.35309534
O       2.69019451      0.83265570      0.11511726
H      -2.04324503      2.45639420     -0.30744216
H      -1.94074968      1.49963933      1.28878148
H      -2.28053381     -1.49270829     -0.15514815
H      -1.59881579     -0.70544945      1.28055995
H      -0.10135139     -2.42764051      0.17392297
H      -0.04747103     -1.41288669     -1.26300599
H       1.16250006     -0.69124021      1.35241310
H       1.52617211      0.19037452     -1.42683059
