14
b3lypvtz=-201292.37308947
N       3.17653503     -0.73831935     -0.22485719
C       2.05159358     -0.40268658      0.25947547
N       1.44448113      0.83981147      0.09037191
C       0.16357350      0.94608504      0.03978479
C      -0.84260443     -0.08063805      0.00598891
C      -2.15342359      0.25376799     -0.04321089
N      -3.20703749     -0.59965444     -0.04835697
H       3.54446943      0.03702499     -0.78194520
H       1.54388044     -1.12349361      0.90781582
H      -0.22109833      1.96763690     -0.01118367
H      -0.55061723     -1.12333045     -0.00443255
H      -2.43132105      1.30239807     -0.05688469
H      -4.12796591     -0.26216807     -0.25701571
H      -3.05710207     -1.58922889     -0.14125004
