16
b3lypvtz=-204435.87695455
C       1.49007988      0.12653687     -0.65072707
C       0.26951030      0.92558772     -0.13591753
C      -1.02620233      0.70190137     -0.90566183
O      -1.40106072     -0.64824056     -0.62736441
C      -1.10700278     -0.85820770      0.75380936
C       0.19666602     -0.11041254      1.03057506
N       1.45553425     -0.73319735      0.56004203
H       2.42053441      0.69009811     -0.74476801
H       1.29707451     -0.39544113     -1.59188308
H       0.45267532      1.96575524      0.12214779
H      -1.80724227      1.39324140     -0.56068787
H      -0.92335334      0.80119289     -1.98632605
H      -1.04380829     -1.93342922      0.92588928
H      -1.91150916     -0.45029683      1.38221226
H       0.25350699      0.25024962      2.05892043
H       1.38459725     -1.72533791      0.36973966
