11
b3lypvtz=-212989.28646102
C      -1.46134252      1.88651647     -0.00019390
C      -1.05399282      0.75776870     -0.00018734
C      -0.71208222     -0.65167958     -0.00017611
O      -1.57872850     -1.50315072     -0.00020907
N       0.62472877     -1.00217490     -0.00012244
C       1.80903538     -0.24503779     -0.00009135
N       1.99673317      1.00180863     -0.00012080
H      -1.81197952      2.88975378     -0.00020202
H       0.74286747     -2.00571475     -0.00010709
H       2.67403405     -0.90724409     -0.00003239
H       1.13345874      1.53911026     -0.00017750
