14
b3lypvtz=-203698.52743169
O       2.88474771      0.25452863      0.43316018
C       1.84373094      0.12765958     -0.15700564
C       0.48343731      0.06583641      0.47996948
C      -0.34673723     -1.15496092      0.01895511
C      -1.69602569     -0.53126434     -0.25232856
N      -1.75005492      0.73249595     -0.24099232
C      -0.41668080      1.26943533      0.05103078
H       1.82812039      0.05943818     -1.26861752
H       0.61631020      0.05975770      1.56063167
H      -0.38636267     -1.94819587      0.76614953
H       0.04479894     -1.60791639     -0.89935726
H      -2.57994727     -1.12414713     -0.47187244
H      -0.04515183      1.76868656     -0.84940581
H      -0.48018509      2.02854630      0.82988280
