18
b3lypvtz=-205207.85962261
C       2.60470817      0.37421559     -0.34717576
C       1.44492132      0.71000752      0.20150616
C       0.29896821     -0.22682390      0.44921556
O       0.71557175     -1.54907513      0.12358479
C      -0.97957632      0.16275016     -0.35032183
C      -1.53577507      1.52036186      0.07268686
N      -2.05257435     -0.82963652     -0.25599035
H       3.38105123      1.11172089     -0.50222834
H       2.81113954     -0.64280941     -0.64885275
H       1.27520632      1.73589032      0.50734059
H       0.03937357     -0.17551063      1.51953186
H       0.02996560     -2.15406739      0.41961732
H      -0.68866638      0.20547533     -1.40305660
H      -2.44112191      1.73583065     -0.49286421
H      -0.82322771      2.32608416     -0.09731108
H      -1.79688077      1.52063362      1.13511679
H      -1.78518796     -1.71859599     -0.65763675
H      -2.35019625     -0.97902212      0.70197475
