12
b3lypvtz=-285468.89548994
C      -2.76587066     -0.19200855      0.18796653
C      -1.65923935      0.38327950     -0.25927909
C      -0.45577615     -0.36987550     -0.74529116
C       0.81103911     -0.03584776      0.01604997
F       0.72052428     -0.34830694      1.32268752
F       1.11146906      1.27936325     -0.05921474
F       1.86741994     -0.71258844     -0.48312734
H      -2.86580623     -1.26942218      0.24527880
H      -3.61445099      0.39495160      0.51237939
H      -1.59295370      1.46487139     -0.30128480
H      -0.60735934     -1.44648831     -0.66707047
H      -0.24940997     -0.13568706     -1.79296461
