17
b3lypvtz=-191981.36005608
C       1.96786289      1.33254249      0.04842114
C       1.68412268     -0.14897564     -0.04151622
N       2.57724832     -1.04514808     -0.22546745
C       0.29493054     -0.61526113      0.08648232
C      -0.77648854      0.15370735      0.28784559
C      -2.17603606     -0.36200123      0.42254170
N      -3.07036528      0.35388713     -0.49535717
H       3.03192571      1.52687518     -0.07893783
H       1.65590077      1.73250141      1.01536415
H       1.41998598      1.88353071     -0.71867467
H       3.50324056     -0.62324797     -0.30240927
H       0.18636107     -1.69160823      0.00496788
H      -0.68202546      1.23250741      0.35369683
H      -2.17780482     -1.45316279      0.30049733
H      -2.52902960     -0.15631336      1.43882057
H      -4.03586644      0.10539940     -0.31798921
H      -2.86791130      0.09604635     -1.45419971
