11
b3lypvtz=-323852.09564172
F       2.21688947      0.62049159     -0.17039362
C       1.67834170     -0.61831077      0.15475270
C       0.35227048     -0.82886814     -0.55339844
C      -0.79232736     -0.00254548     -0.00846956
F      -0.98192293     -0.22594522      1.31213097
F      -1.94694330     -0.31978126     -0.63261032
F      -0.60383513      1.31811204     -0.16490473
H       1.56516751     -0.66237507      1.23872011
H       2.38940475     -1.38283890     -0.16178887
H       0.05961491     -1.87577373     -0.45795793
H       0.45519389     -0.60403106     -1.61501531
