13
b3lypvtz=-239442.07930035
O       1.47834151     -1.73714891     -0.13306322
C       1.37190823     -0.68322488      0.71270185
C       0.59399689      0.39263145      0.56151142
O       0.70386373      1.44333910      1.46903207
C      -0.32284130      0.65041144     -0.57559051
C      -1.59207097     -0.07787288     -0.76379854
O      -0.44667349     -0.38556976     -1.57142152
H       0.86022124     -1.59358350     -0.86957108
H       2.02124067     -0.75996185      1.57441171
H      -0.13172011      1.55199566      1.93690508
H      -0.26001699      1.65444379     -0.98815207
H      -1.86821892     -0.84462404     -0.04845672
H      -2.40803047      0.38906439     -1.30450847
