16
b3lypvtz=-181124.43508942
C      -3.43658076      0.57487670      0.14692340
C      -2.36627981      0.15439537     -0.19729697
C      -1.05277414     -0.35053909     -0.57941009
C      -0.06850627     -0.45325850      0.61432606
C       1.27751461     -0.98511799      0.21795164
C       2.34436400     -0.24140410     -0.09563901
N       2.40998045      1.14663473     -0.16995896
H      -4.38701923      0.94376495      0.44088115
H      -1.16198023     -1.33626433     -1.03949903
H      -0.62043673      0.29748963     -1.34594559
H       0.01458298      0.53507844      1.07563759
H      -0.51713174     -1.09798838      1.37288682
H       1.38742448     -2.05956571      0.14753851
H       3.26759348     -0.73068857     -0.38269424
H       1.67542465      1.65068052      0.30261509
H       3.31684928      1.54335833      0.01615362
