17
b3lypvtz=-171075.63273687
C       1.48310553      0.66470021      0.19364354
C       1.48310460     -0.66470210      0.19364315
C       0.32449909     -1.51140539     -0.25109198
C      -0.98474324     -0.75430421     -0.36646524
C      -1.52850900      0.00000086      0.81872601
C      -0.98474197      0.75430564     -0.36646488
C       0.32450148      1.51140472     -0.25109119
H       2.37405591      1.19341426      0.51472383
H       2.37405457     -1.19341816      0.51472313
H       0.20847861     -2.36228400      0.42978116
H       0.56850848     -1.95284179     -1.22512990
H      -1.72267669     -1.23344930     -0.99789908
H      -0.93615236      0.00000025      1.72494977
H      -2.59764242      0.00000162      0.98122681
H      -1.72267466      1.23345209     -0.99789851
H       0.56851123      1.95284122     -1.22512878
H       0.20848184      2.36228307      0.42978216
