18
b3lypvtz=-181909.0584401
C      -3.60346359      0.32532911      0.20777965
C      -2.21597264      0.29255257     -0.35468363
C      -1.22956117     -0.48727281      0.07532967
C       0.15969587     -0.51459491     -0.48924147
C       1.23214788     -0.11490008      0.54610842
C       2.62867258     -0.24410876      0.00383562
N       3.51544571      0.65367985     -0.09917396
H      -4.34466235      0.07276539     -0.55572794
H      -3.85883642      1.32492305      0.57065577
H      -3.71726559     -0.37554130      1.03549000
H      -2.02081789      0.96625522     -1.18617095
H      -1.41876592     -1.16216915      0.90811751
H       0.22310229      0.14993140     -1.35388500
H       0.38856319     -1.52322676     -0.85131527
H       1.13758287     -0.77034373      1.41954264
H       1.05940365      0.90768062      0.89009985
H       2.89875546     -1.24401275     -0.35056783
H       3.16710706      1.54825104      0.25557093
