17
b3lypvtz=-217666.4874235
C       3.29082202     -0.73655534      0.07856116
C       2.17398359     -0.18074488     -0.37344451
O       1.39745860      0.63634817      0.38726311
C       0.10552934      0.94632632     -0.12510027
C      -0.90608607     -0.12586643      0.25192052
O      -2.15976244      0.27710648     -0.25600792
C      -3.20073615     -0.62891432      0.04512553
H       3.62547287     -0.58847765      1.09545513
H       3.89179615     -1.34134067     -0.58253200
H       1.82928829     -0.32481756     -1.39439903
H      -0.18308506      1.89955563      0.31509583
H       0.13810198      1.06660638     -1.21206595
H      -0.60597601     -1.09521848     -0.17021415
H      -0.93757974     -0.23541455      1.34395322
H      -3.33470646     -0.74117338      1.12796408
H      -3.00903817     -1.61931743     -0.38582742
H      -4.11569875     -0.22648428     -0.38550431
