15
b3lypvtz=-216940.63512922
C       2.81083077     -0.26267134     -0.41930280
C       1.47883523     -0.78017148      0.10496582
C       0.43170566      0.29399294      0.30424696
O       0.62977546      1.46322814      0.06813247
C      -0.93859279     -0.16789270      0.80241199
C      -2.01894077      0.18355007     -0.20400457
O      -2.83524502     -0.60123410     -0.60714393
H       3.51810602     -1.08285026     -0.54263584
H       3.24423889      0.46539082      0.26546876
H       2.68578099      0.23189984     -1.38198730
H       1.04697929     -1.53215175     -0.56571789
H       1.59935881     -1.29975503      1.06257085
H      -1.14891232      0.40155418      1.71321539
H      -0.98263300     -1.23254214      1.02248740
H      -1.99743722      1.23265480     -0.55243431
