15
b3lypvtz=-193578.2887543
C       2.58479889     -0.64819996     -0.00013226
C       1.45538684     -0.24126798      0.00006014
C       0.09024135      0.25557354      0.00003317
C       0.04365750      1.78666151      0.00003955
C      -0.87987227     -0.38840089      1.03341408
O      -1.83355605     -0.70868620     -0.00004338
C      -0.87979200     -0.38839963     -1.03342531
H       3.58247001     -1.01041817     -0.00005535
H       0.54276567      2.18741260      0.88298698
H      -0.99212832      2.12887882     -0.00000927
H       0.54285503      2.18742388     -0.88285191
H      -1.29481231      0.28855712      1.78288112
H      -0.48492450     -1.28505779      1.51652687
H      -0.48479966     -1.28505546     -1.51650290
H      -1.29466818      0.28855860     -1.78292753
