15
b3lypvtz=-170296.0204384
C      -2.90073241      0.00014393     -0.26445469
C      -1.75063646     -0.00010272      0.08035272
C      -0.35485716     -0.00004077      0.49146503
C       0.46601757      1.23324065      0.00851882
C       1.85202883      0.66440558     -0.15435836
C       1.85209811     -0.66428872     -0.15432569
C       0.46614183     -1.23325273      0.00856041
H      -3.91748324     -0.00007920     -0.56798030
H      -0.32241467     -0.00003126      1.58450021
H       0.41051196      2.05843020      0.72016175
H       0.08361024      1.61169593     -0.94449156
H       2.72545362      1.28614969     -0.29871443
H       2.72558466     -1.28595535     -0.29864045
H       0.41070629     -2.05843558      0.72021601
H       0.08379383     -1.61176264     -0.94445549
