12
b3lypvtz=-179588.61726727
C      -3.35131712     -0.22821215     -0.13235334
C      -1.91084388     -0.06205228     -0.13861960
C      -0.71012709      0.07583356     -0.14448558
C       0.63919806      0.23367733     -0.15091028
C       1.84442152      0.36607014     -0.15654227
C       3.25888364      0.54176038     -0.16307469
N       4.14068661     -0.38006809     -0.17505240
H      -3.64803344     -1.03739908      0.53836213
H      -3.84974113      0.68551935      0.19795633
H      -3.71821404     -0.46944127     -1.13243367
H       3.60790796      1.57487476     -0.15675788
H       3.69717891     -1.30056264     -0.18008875
