15
b3lypvtz=-193607.72930253
C      -1.76050669      0.66494340      0.05628510
C      -1.76050668     -0.66494338      0.05628511
C      -0.38378426     -1.23859869     -0.15327278
C       0.51445772     -0.00000000     -0.10379115
C      -0.38378426      1.23859868     -0.15327279
C       1.92214112      0.00000001     -0.49584379
O       1.55304873     -0.00000005      0.88866100
H      -2.63837341      1.28449100      0.17999467
H      -2.63837339     -1.28449099      0.17999469
H      -0.30712283     -1.75972059     -1.11360281
H      -0.08758733     -1.95059673      0.62074134
H      -0.30712283      1.75972058     -1.11360283
H      -0.08758734      1.95059673      0.62074133
H       2.38294273     -0.91678014     -0.85304508
H       2.38294272      0.91678018     -0.85304504
