16
b3lypvtz=-204422.19867874
N       1.32831213     -1.53212151      0.29285046
C       0.95709385     -0.43914789     -0.57260556
C      -0.44510004     -0.19771399     -1.06601113
C      -1.47368502     -0.40757026      0.04850227
C      -0.74759633      0.66403772      0.91921150
C       0.27017772      0.84838012     -0.20609016
O       0.74288022      2.09198201     -0.61322812
H       1.94675466     -1.23294865      1.03688593
H       0.52305354     -1.96908817      0.71949279
H       1.67945491     -0.27309582     -1.36669058
H      -0.66971266     -0.18112945     -2.12318232
H      -1.54767562     -1.41330562      0.46757378
H      -2.47244982     -0.09146784     -0.24578952
H      -0.35439998      0.34286232      1.88663187
H      -1.35461017      1.55628848      1.05893149
H       1.61760261      2.23413855     -0.23638269
