15
b3lypvtz=-193587.84928157
C      -1.48114884     -0.69489997     -0.42306990
C      -1.08402310      0.74346026     -0.59293042
O       0.16408190      1.04302953     -1.18138099
C       1.21105486      0.72802709     -0.28784387
C       1.53086811     -0.71515434     -0.02288960
C       0.63916953      0.05432974      0.93028149
C      -0.85925700      0.06452775      0.73116223
H      -2.54127238     -0.90111169     -0.35281283
H      -0.91285967     -1.45899537     -0.93262211
H      -1.82980082      1.50545119     -0.77539071
H       1.98865845      1.47972237     -0.26779532
H       1.10540750     -1.47232078     -0.66483780
H       2.53294036     -0.93531298      0.32160530
H       1.00452239      0.27104872      1.92360030
H      -1.46844131      0.28809849      1.59492423
