14
b3lypvtz=-203648.9292272
C      -1.68423296     -0.62473848     -0.00850613
C      -0.38447377     -0.45454307     -0.77254976
C       0.21857538      0.97671672     -0.92838731
C       1.57848950      0.29330838     -1.16296591
O       2.60067227      0.42858104     -1.76213446
C       0.96423841     -0.48896558      0.01266754
N       0.58438940      0.89069705      0.55505958
H      -2.52870964     -0.31131465     -0.62511833
H      -1.83743175     -1.67474784      0.24759014
H      -1.68883801     -0.04015935      0.90821033
H      -0.37573955     -1.04036804     -1.69202909
H      -0.22766969      1.86636956     -1.36294100
H       1.36803262     -1.26968196      0.65056740
H       1.41269778      1.44884619      0.76785401
