11
b3lypvtz=-215356.02165582
C       2.29862681     -0.88896900      0.32052989
C       1.43876727     -0.12335629     -0.01434437
C       0.44777461      0.84358596     -0.40736465
O      -0.41437284      0.52363484     -1.49798678
C      -1.01254342      0.64249427     -0.20572119
C      -1.52515364     -0.62531217      0.39525443
O      -2.41105258     -0.64534968      1.20944029
H       3.05355308     -1.57579068      0.61409034
H       0.78899919      1.87475524     -0.39906848
H      -1.63267555      1.51842544     -0.04321181
H      -1.03202292     -1.54431793      0.02828234
