17
b3lypvtz=-194358.77031028
C       2.57817432     -0.79099961     -0.55812677
C       1.67414173     -0.49002711      0.17169270
C       0.57246108     -0.12333551      1.05592118
C      -0.56733347      0.66346771      0.36640049
C      -0.07990987      1.96114905     -0.27965773
C      -1.31567476     -0.20519337     -0.64756526
O      -1.89023088     -1.37682338     -0.07348359
H       3.38099905     -1.06416731     -1.19595883
H       0.15151377     -1.03311246      1.48973785
H       0.96711187      0.47185385      1.88424274
H      -1.27772961      0.92226284      1.16087545
H      -0.91425708      2.52846924     -0.69595816
H       0.42488931      2.59713788      0.44938043
H       0.62633519      1.75763812     -1.08596754
H      -0.62486043     -0.56154344     -1.41305370
H      -2.08208524      0.39720500     -1.14894549
H      -2.61751999     -1.11238949      0.49801523
