16
b3lypvtz=-204417.84157926
C      -3.38463489      0.48240152      0.00117082
O      -1.97341420      0.54632916      0.00179594
C      -1.38028431     -0.74321093     -0.00255385
C       0.07182888     -0.62886489     -0.00126217
C       1.27202354     -0.56237909     -0.00004416
C       2.73193523     -0.40822369      0.00156804
N       3.21540820      0.97846046     -0.00117215
H      -3.76677652     -0.03611500      0.88988065
H      -3.76620346     -0.03077705     -0.89088406
H      -3.75199688      1.50664908      0.00415214
H      -1.70897718     -1.31325663      0.87875838
H      -1.70815578     -1.30684947     -0.88831213
H       3.15246362     -0.91612240     -0.86962447
H       3.15009333     -0.91177150      0.87641846
H       2.84556296      1.46684316      0.80682466
H       2.84757244      1.46297227     -0.81240809
