20
b3lypvtz=-205981.23736974
C       1.59888441      1.53244574      0.07914016
C       1.15022997      0.12068127     -0.31498116
C       2.18131600     -0.91808417      0.13804607
C      -0.23897328     -0.22551260      0.23414188
O      -0.57064665     -1.54476469     -0.17576765
C      -1.35147963      0.72452835     -0.22674967
N      -2.65225375      0.16449143      0.17517943
H       0.95890754      2.30977202     -0.33940814
H       2.61346850      1.71976665     -0.27607902
H       1.60663072      1.65275007      1.16602506
H       1.07486460      0.06835010     -1.40671151
H       2.30566730     -0.89148860      1.22433318
H       3.15519952     -0.71560973     -0.31179191
H       1.87258412     -1.92343860     -0.14065081
H      -0.18935786     -0.18457011      1.33672040
H      -1.53685196     -1.59136679     -0.10397234
H      -1.33428172      0.77357716     -1.31785994
H      -1.17974080      1.73394638      0.15870450
H      -2.84817334      0.36469985      1.14897415
H      -3.40717570      0.56098528     -0.36848370
