12
b3lypvtz=-247092.46494174
C      -0.16339231     -0.86060084     -0.07397103
C      -1.16029228      0.03721256     -0.17496020
N      -1.16464247      1.28919032      0.39112881
O      -2.33869287     -0.22417281     -0.80248566
O       1.00019232     -0.52743228      0.59040977
N       2.11001494     -0.16573937     -0.34046534
N       3.14530162     -0.01228781      0.25710363
H      -0.24951821     -1.87044740     -0.45216867
H      -0.26387782      1.59631659      0.71975951
H      -1.66963290      1.98461104     -0.13619913
H      -2.27286027     -1.07254607     -1.25357320
H       3.02740023     -0.17410392      1.27542149
