16
b3lypvtz=-204439.45026332108
C      -2.46688659     -0.74014716      0.65719991
C      -1.66625505     -0.69107515     -0.39930677
C      -0.77647293      0.46911637     -0.75582525
N       0.66182674      0.15384962     -0.81573795
H       0.83219397     -0.53282631     -1.54268082
H       2.35919094      1.54195595     -0.65036717
C       1.26493826     -0.24162423      0.42279831
C       2.35947389      0.40750713      0.82292182
O       2.93167487      1.41613300      0.12679176
H      -2.53486965      0.08800278      1.35306947
H      -3.08788709     -1.60225224      0.86342116
H      -1.62299908     -1.54356086     -1.07351667
H      -1.05935534      0.85833066     -1.73861114
H      -0.91349035      1.27769501     -0.03612679
H       0.83702619     -1.03394004      1.02611021
H       2.88189119      0.17283545      1.73985992
