19
b3lypvtz=-192742.76443298
C       0.74212343      2.17873539     -0.35165351
C       0.27936946      1.07250807      0.61086011
C      -0.05127011     -0.22870456     -0.08005284
C       0.83514116     -1.22112634     -0.23071812
N       2.14519200     -1.26079971      0.25306007
C      -1.44994516     -0.39118420     -0.61219181
N      -2.44266696     -0.36885615      0.47635111
H       0.94208108      3.10899465      0.18435796
H       1.65336642      1.89161875     -0.88061055
H      -0.01967284      2.38839016     -1.10454114
H       1.04471953      0.91496901      1.37638302
H      -0.61117925      1.40809859      1.14551873
H       0.53227848     -2.13670612     -0.72716895
H       2.76721455     -1.85438205     -0.27149104
H       2.56660974     -0.36477727      0.44038336
H      -1.69719937      0.44577858     -1.27480876
H      -1.49557244     -1.29939954     -1.22866436
H      -2.33601161     -1.19382560      1.05574834
H      -3.38414311     -0.38592468      0.10135738
