12
b3lypvtz=-226217.10121838
O       2.62688757     -0.86598185     -0.95825815
C       2.28508725     -0.11471471     -0.09126712
C       0.82642721      0.25575329      0.22519730
O       0.62231604      1.03071201      1.12996268
N      -0.13952107     -0.36522438     -0.59664886
C      -1.43309669     -0.64983806      0.09375606
C      -1.35323391      0.46911085     -0.84517732
H       2.99343637      0.40064242      0.58434383
H      -1.47615021     -0.40918927      1.14815371
H      -1.87502678     -1.58961527     -0.20633510
H      -1.73509885      0.37121684     -1.85172788
H      -1.34212694      1.46702812     -0.42609914
