17
b3lypvtz=-191965.26403647
C      -2.76086204     -0.13968340     -0.05737587
C      -1.27661522     -0.26174452     -0.28141662
C      -0.29112001      0.12032580      0.77171013
N      -0.50134193     -1.29660019      0.42114942
C       1.03719797      0.71344911      0.48449687
C       2.10202573     -0.00398897      0.11672985
N       3.39147127      0.47468490     -0.08966023
H      -3.30589301     -0.92365549     -0.58923066
H      -3.00610903     -0.22094102      1.00431794
H      -3.13418698      0.82285832     -0.41446171
H      -0.95356689     -0.13100596     -1.30935884
H      -0.74728612      0.45651730      1.70099427
H      -1.07932490     -1.74659782      1.12397051
H       1.11790148      1.79086591      0.60088909
H       1.99850452     -1.07761348      0.01627735
H       3.46924332      1.46964800     -0.23652722
H       3.93996183     -0.04651849     -0.75451618
