15
b3lypvtz=-214520.3662164
C      -2.86558927     -0.51259979      0.12764609
N      -1.67704367      0.26591965     -0.20584953
C      -0.42588339     -0.44042245      0.01249878
C       0.75183462      0.51006800      0.03532175
N       0.69287127      1.77718727      0.08421986
C       2.12839644     -0.08639343      0.01634915
O       2.34272482     -1.27287091     -0.02514263
H      -2.93048271     -1.47737344     -0.39532719
H      -2.87972541     -0.71209848      1.20028152
H      -3.75584059      0.06764547     -0.11364013
H      -1.73083612      0.56839827     -1.17131284
H      -0.22200725     -1.24010479     -0.71287918
H      -0.46874996     -0.94084420      0.98512505
H      -0.28981810      2.06744517      0.11693512
H       2.93622332      0.66701167      0.04911117
