14
b3lypvtz=-203684.79262355
C      -1.15461871      1.36808041     -0.11992371
C      -0.11678051      0.28384801     -0.17836961
C      -0.43042838     -1.11827658     -0.65721623
C       0.02278971     -0.90551804      0.75538344
O       1.42096362     -1.04419070      0.99452652
C       1.99805829     -0.07622960      0.23010523
N       1.25133841      0.70547487     -0.43102987
H      -0.88389520      2.12515586      0.61756467
H      -1.24303436      1.85806342     -1.09101062
H      -2.13052700      0.96042858      0.14612934
H      -1.47604877     -1.36536002     -0.78299901
H       0.24553691     -1.59029153     -1.35815850
H      -0.58139508     -1.14515843      1.61714761
H       3.07824106     -0.05602626      0.25785074
