18
b3lypvtz=-181888.88712924
C       2.82039098     -0.42453027      0.37517185
C       1.72879409     -0.78695569     -0.29038233
C       0.56886635      0.06710146     -0.63152173
C       0.38427694      1.46051447     -0.09024802
C      -0.51334151      0.36403848      0.39669120
N      -1.87851853      0.36357870     -0.03943299
C      -2.54967588     -0.92263678      0.10557891
H       2.97787403      0.59084867      0.71643734
H       3.60292767     -1.13746498      0.59772820
H       1.64485135     -1.81951649     -0.61982368
H       0.16476046     -0.09197106     -1.62427357
H      -0.05336166      2.18869661     -0.75858501
H       1.12069491      1.85572335      0.59463784
H      -0.30276537     -0.01795431      1.39710376
H      -2.39736837      1.08772820      0.44250129
H      -2.52757318     -1.32608992      1.12931281
H      -3.59126128     -0.82724821     -0.20223071
H      -2.07497501     -1.65600822     -0.54860616
