18
b3lypvtz=-228519.20057794
C      -1.08653839     -1.85181733      0.42712663
C      -0.21579018     -0.68104297     -0.01010482
C      -1.07627996      0.54664254     -0.34359859
N      -0.32215787      1.58594976     -1.06611595
O       0.70707775     -0.44194922      1.04623584
C       1.93003340      0.19666507      0.71734412
O       1.86699668      1.58586127      0.70355033
H      -1.78233216     -2.14239149     -0.36103139
H      -0.46091862     -2.70801352      0.67440842
H      -1.66094499     -1.58568029      1.31605752
H       0.34577198     -0.96656214     -0.91305119
H      -1.42533479      0.97486632      0.59687395
H      -1.95669314      0.21164172     -0.90421762
H      -0.86056564      2.44201816     -1.12320079
H      -0.13514565      1.29442468     -2.01906833
H       2.27857930     -0.20270660     -0.24845847
H       2.62953779     -0.08419754      1.50307656
H       1.22480448      1.82619157      0.00387377
