15
b3lypvtz=-237842.38437721
N       1.02690485      1.35777491      0.02047547
C       1.32939189      0.19600763     -0.41948029
O       2.56183673     -0.22542960     -0.83650334
N       0.43617164     -0.81718454     -0.52356950
C      -1.01434577     -0.64500306     -0.45432059
C      -1.56494498     -0.27481506      0.92817982
O      -1.50579427      1.10159699      1.21741219
H       1.80025810      2.01120794      0.00543049
H       3.20945467      0.45910755     -0.64092867
H       0.79284637     -1.66032758     -0.93597450
H      -1.33962609      0.11630637     -1.16952074
H      -1.44183843     -1.59997037     -0.76121935
H      -1.04326659     -0.87881027      1.68454144
H      -2.62061098     -0.55715944      0.95684411
H      -0.62633713      1.41659852      0.92863346
