16
b3lypvtz=-181141.83010384
C       2.00904403     -0.25829783     -0.26157399
C       0.58796274      0.27179216     -0.48779249
C       0.21664996      1.36398893      0.50239755
N      -0.73875191      1.11276592      1.30269012
C      -1.27541822     -0.19234718      0.97977158
C      -0.50413400     -0.75161255     -0.20477291
C      -1.93165537     -0.30426127     -0.36918998
H       2.74978348      0.53246880     -0.39228746
H       2.11830541     -0.65910050      0.74746592
H       2.24141355     -1.05427934     -0.97101324
H       0.51970579      0.66265344     -1.50881924
H       0.73553110      2.31860004      0.53968759
H      -1.63913487     -0.77947895      1.81029399
H      -0.27435148     -1.80458302     -0.29060852
H      -2.67824141     -1.07648886     -0.49756672
H      -2.13670879      0.61818019     -0.89868220
