17
b3lypvtz=-212848.95020463
C      -2.92787032     -0.80980721      0.06065449
N      -1.67465429     -0.25211140     -0.43260579
C      -1.02248306      0.63801955      0.51808591
C       0.20413393      1.31357429     -0.09474055
N       1.24964517      0.40074308     -0.51344295
N       2.07569774     -0.10232004      0.39580120
N       2.77204952     -1.05783666     -0.01844914
H      -3.32413011     -1.51819984     -0.66707653
H      -3.66252253     -0.01048075      0.17768729
H      -2.83929042     -1.32539829      1.02945095
H      -1.04418494     -1.01087306     -0.66356499
H      -0.72630132      0.13124921      1.45069404
H      -1.73539948      1.42021426      0.79505177
H       0.64002074      2.00427131      0.62752313
H      -0.09902452      1.88333270     -0.97365909
H       1.19581094     -0.09382240     -1.39904703
H       3.38037696     -1.31421975      0.76025830
