17
b3lypvtz=-171057.09864215
C       2.79804688      1.04399153      0.35380975
C       2.08820927      0.16902654     -0.06938206
C       1.29140407     -0.87842789     -0.60472568
C       0.04732256     -1.18428898     -0.21417214
C      -0.75010701     -0.50249451      0.85120394
C      -2.11959667      0.00484847      0.36233557
C      -2.02786438      1.13546080     -0.66159030
H       3.41802560      1.81740506      0.73269006
H       1.75506539     -1.46667158     -1.38946740
H      -0.44007871     -2.01482292     -0.71644990
H      -0.17603272      0.32343265      1.27529911
H      -0.92033860     -1.21885501      1.66318090
H      -2.68895284      0.34476273      1.23093471
H      -2.68242770     -0.83255228     -0.06147658
H      -3.02065714      1.46841759     -0.96830222
H      -1.48977150      0.82150770     -1.55726916
H      -1.49968651      1.99698111     -0.24745460
