13
b3lypvtz=-192863.03683951
C       2.33702157     -0.01876635      0.00000290
C       0.99957606      0.04369781      0.00000154
C       0.20295435      1.25282010      0.00000088
C      -1.14132643      1.20740419      0.00000005
C      -1.81044912     -0.07243484      0.00000002
C      -1.05597100     -1.17802276      0.00000072
O       0.29670948     -1.16408962      0.00000167
H       2.91542780      0.89139549      0.00000255
H       2.85387254     -0.96578738      0.00000310
H       0.73936093      2.19123098      0.00000117
H      -1.72405183      2.11848421     -0.00000082
H      -2.88614443     -0.15424812     -0.00000070
H      -1.43687192     -2.18865772      0.00000093
