19
b3lypvtz=-192755.38228053
C       2.71149763     -0.64196568      0.62024144
C       2.20301987      0.29163118     -0.47615448
C       0.77071711      0.77225588     -0.24263037
N      -0.15969919     -0.34217225     -0.28822895
C      -1.39113901     -0.15578067     -0.02790972
C      -2.02100511      1.15422804      0.38911040
N      -2.27996605     -1.20575728     -0.18941225
H       2.06400944     -1.51445998      0.70856712
H       3.72471837     -0.98858263      0.40953379
H       2.72840363     -0.13731019      1.58999913
H       2.23997919     -0.21969033     -1.44143972
H       2.85641066      1.16570687     -0.55431835
H       0.72629542      1.29577575      0.72401732
H       0.51814134      1.51823195     -1.00867217
H      -3.08985726      1.05734097      0.57262144
H      -1.87938446      1.90378729     -0.39138440
H      -1.54335195      1.53670041      1.29224179
H      -1.83640281     -2.10453593     -0.30346193
H      -3.09938082     -1.21146640      0.39437990
