11
b3lypvtz=-238722.65891542
C       0.53786497     -0.87818037      0.04693269
C      -0.75654791     -0.13792814      0.09855740
C      -0.51925664      1.15806991     -0.08261434
O       0.84597285      1.43280378     -0.26354332
C       1.54028610      0.24656006     -0.19656723
O       2.72489406      0.19008386     -0.31816682
O      -1.91398140     -0.81425518      0.30526340
H       0.59010461     -1.60923189     -0.76248881
H       0.77851201     -1.40089039      0.97490995
H      -1.16914295      2.01523085     -0.11501142
H      -2.65870569     -0.20226249      0.31272848
