13
b3lypvtz=-216108.0399531
C      -0.70845770      1.00525742     -0.03741254
C      -1.59946143     -0.23339929     -0.21729041
O      -1.03722306     -1.00783187     -1.28457761
C      -0.47698653     -1.15326261      0.03028710
C       0.46234450      0.02724231      0.21372671
C       1.90239933      0.13401915      0.02784508
O       1.30583449      0.15099231      1.34308813
H      -0.93166847      1.57140747      0.86688982
H      -0.64571466      1.66920740     -0.89831714
H      -2.65484829     -0.34972769     -0.01860310
H      -0.43456849     -2.14059369      0.46783793
H       2.33286174      1.07784571     -0.29008574
H       2.48538857     -0.75145661     -0.20328824
