14
b3lypvtz=-203668.77610311
C      -2.73975895      0.38577788      0.02941042
C      -1.62899617     -0.07177325      0.01866663
C      -0.28340929     -0.63183275      0.03527803
O      -0.10638629     -1.81315621     -0.15724799
C       0.84909158      0.34314684      0.37081038
C       2.20531693     -0.23608954     -0.00527171
N       0.62670898      1.61678499     -0.32051833
H      -3.73059743      0.76913886      0.02952283
H       0.80318583      0.43980547      1.47046384
H       3.00211334      0.42866794      0.33238927
H       2.35118162     -1.21179997      0.45268049
H       2.28072514     -0.34595560     -1.08675266
H      -0.22839684      2.05987928     -0.00561831
H       1.38660757      2.25428607     -0.11580689
