18
b3lypvtz=-205244.09715894
C      -2.72123924     -0.13011237      0.82990592
C      -2.00956366      0.04697895     -0.51012500
N      -0.67706948     -0.53970137     -0.53649960
C       0.45351423      0.18153812     -0.29218881
O       0.43070585      1.37719351     -0.04885365
C       1.75903301     -0.60115099     -0.38224216
C       2.76879576     -0.16497182      0.67747139
H      -3.71374879      0.32321058      0.79655062
H      -2.15406720      0.34847431      1.62804710
H      -2.84209512     -1.18628463      1.07919014
H      -2.59661247     -0.39948997     -1.31547239
H      -1.88893331      1.10572971     -0.73172451
H      -0.59036555     -1.53088859     -0.67941444
H       1.57015408     -1.67568818     -0.31929948
H       2.16727392     -0.41338075     -1.37989562
H       2.41334964     -0.40362221      1.68114245
H       3.72586054     -0.66610568      0.52930252
H       2.92488978      0.91105539      0.62730950
