17
b3lypvtz=-191951.74521081
C       1.11203488      1.92170423      0.03765016
N       1.60396368      0.74478734     -0.05273594
N       0.88466874     -0.38833013      0.07569778
C       1.68122894     -1.60060316     -0.06606764
C      -0.49885433     -0.55134089      0.17218973
C      -1.50830436      0.25598265     -0.17473473
C      -2.94407075     -0.12641950      0.02474950
H       1.82717295      2.73209978     -0.02310599
H       0.07371458      2.16581248      0.21814127
H       2.71794766     -1.34980023      0.13415984
H       1.34836734     -2.35311117      0.65091515
H       1.60442208     -2.02431014     -1.07240356
H      -0.74687974     -1.52384104      0.58759343
H      -1.33027319      1.20873878     -0.64875933
H      -3.45806801      0.56748118      0.69656593
H      -3.49241948     -0.10800317     -0.92150537
H      -3.03788699     -1.12779500      0.44778577
