14
b3lypvtz=-203614.05188041
C       0.66689719      1.33060286      0.26229899
C      -0.55252169      0.76714774     -0.44916957
C       0.26545056     -0.51390483     -0.79287723
N       0.79922479     -0.14804756      0.62187936
C      -0.75128609     -0.23481891      0.72781393
C      -0.76527861     -1.46110780     -0.17008099
O      -1.98409238     -1.67745652     -0.84390075
H       0.50842718      1.97345804      1.13030959
H       1.49450374      1.70345409     -0.34419459
H      -1.31960427      1.25626353     -1.04996869
H       0.95760741     -0.66176688     -1.62138863
H      -1.25364383     -0.05964683      1.67763345
H      -0.35758537     -2.37393783      0.27382495
H      -1.88049861     -2.42033912     -1.44577983
