11
b3lypvtz=-238733.1772606
O       2.72136003     -0.57451145     -0.02981856
C       1.57458937     -0.23302014     -0.01402188
C       0.34423087     -1.03274833     -0.03551157
C      -0.69428542     -0.19150808     -0.00354075
O      -2.01935827     -0.39049724     -0.00471519
C      -0.20417552      1.22270287      0.04116036
O       1.21384023      1.10770295      0.03167527
H       0.34956950     -2.10931999     -0.07110618
H      -2.21669105     -1.33430216     -0.03507753
H      -0.53100776      1.73853283      0.94749888
H      -0.53807198      1.79706876     -0.82654285
