17
b3lypvtz=-194373.61775546
O       1.81266524      1.19756369     -0.75580352
C       0.72004383      0.44013266     -0.31892910
C      -0.03934357      0.91186840      0.93494349
C      -1.16758708     -0.16420031      0.94897583
C      -0.75428085     -0.96501312     -0.30279825
C      -0.42499521      0.16585936     -1.31734386
C       0.77940846     -1.10431098     -0.10800809
H       2.38714559      1.38049870     -0.00493974
H       0.58862637      0.88085647      1.82820346
H      -0.41372820      1.92894574      0.81628700
H      -1.15619302     -0.77506385      1.85223543
H      -2.16193353      0.27215613      0.85052241
H      -1.37036823     -1.81460387     -0.58277370
H      -0.05240534     -0.21457021     -2.26668336
H      -1.16336599      0.95245712     -1.47931203
H       1.26967815     -1.60511835     -0.94077807
H       1.14663337     -1.48735758      0.84620211
