17
b3lypvtz=-191955.48216778
C      -1.53041001      1.25847948     -0.08437505
C      -0.57474006      0.10468577      0.14807384
C       0.80113671      0.34223644     -0.36426846
N       1.83877928     -0.13988002      0.18670380
N       3.07097976      0.16382853     -0.35372242
C      -1.12765326     -1.30846983      0.03264503
C      -0.74846391     -0.74641929      1.37436367
H      -2.53306335      1.01004913      0.26497104
H      -1.20380446      2.15533819      0.44699568
H      -1.60191093      1.50605893     -1.14691161
H       0.87879821      0.95490631     -1.27220139
H       3.05621118      0.34298598     -1.35508100
H       3.72851569     -0.56668088     -0.12700235
H      -2.17770818     -1.41834309     -0.20569690
H      -0.48146955     -2.06127755     -0.39682508
H       0.14945357     -1.12095270      1.84288115
H      -1.54465070     -0.47644541      2.05515006
