16
b3lypvtz=-202054.16353531
C      -0.55258432      1.96902349      0.16410310
C      -0.59606664      0.62550621      0.05317331
N       0.50256836     -0.20259697      0.31253960
C       1.61475792      0.06496767     -0.24581890
N       2.74733252     -0.64998444     -0.00403750
N      -1.74630899     -0.06624716     -0.31690929
C      -1.94841576     -1.45737407      0.05696001
H       0.35347772      2.46765612      0.46746530
H      -1.43193810      2.57557270     -0.00235990
H       1.73093097      0.86555823     -0.98114273
H       3.63158099     -0.28856542     -0.30996235
H       2.74918186     -1.28029704      0.78064377
H      -2.57792845      0.49702834     -0.23989082
H      -2.88273125     -1.79884853     -0.38855415
H      -1.99896077     -1.61888443      1.14099269
H      -1.14125106     -2.07290971     -0.33305215
