15
b3lypvtz=-237854.09275018
N       2.52928539     -0.19211937     -0.12734712
C       1.17716780     -0.70178902     -0.38934005
C       0.18629578      0.10691862      0.46159722
O       0.42872571      1.49427630      0.29860285
C      -1.24757116     -0.25669996      0.08306330
N      -1.95877171      0.74827848     -0.47537748
O      -1.67167133     -1.38514922      0.26527494
H       3.16263370     -0.42467045     -0.88033032
H       2.91276980     -0.58928403      0.72227013
H       0.95332305     -0.52591732     -1.44304134
H       1.03992106     -1.76625959     -0.18781920
H       0.30543202     -0.18006050      1.51452224
H       1.38740309      1.55987915      0.15399290
H      -2.92115960      0.58978392     -0.71702606
H      -1.55082961      1.66493701     -0.54002000
