14
b3lypvtz=-203690.49448211
N       2.35664905     -0.11141003     -0.06740230
C       1.09214459      0.01631307      0.01688852
C       0.33990487      1.27477772     -0.02291542
C      -0.99322545      1.27377891      0.04368420
C      -1.77813357     -0.00228453      0.06127610
O      -1.02779774     -1.11760069     -0.37494898
C       0.24515207     -1.21734768      0.24960169
H       2.80809333      0.79858796     -0.17770041
H       0.90222382      2.20069523     -0.07528834
H      -1.55303419      2.20156938      0.08161990
H      -2.18070097     -0.17454562      1.07411273
H      -2.63459846      0.07188255     -0.61162000
H       0.13049150     -1.36902510      1.33370343
H       0.74066416     -2.09016316     -0.16744012
