15
b3lypvtz=-214515.45537746
C       2.64909117     -0.85063821     -0.23793168
C       1.60905342     -0.04095308      0.02574675
N       1.68292363      1.35554013      0.02195267
N       0.33764719     -0.52734415      0.31640502
C      -0.85714733      0.10729056     -0.02639859
C      -2.06581277     -0.44094918      0.08912814
O      -3.20186398      0.31183906     -0.14757930
H       2.50672171     -1.90924496     -0.39543179
H       3.65266693     -0.45937309     -0.30443419
H       1.27607139      1.79191212      0.83882814
H       2.61479945      1.69740225     -0.15288394
H       0.29799549     -1.52206031      0.46457069
H      -0.75690749      1.12239096     -0.38068909
H      -2.22015743     -1.45736409      0.44026887
H      -3.84555839     -0.22755300     -0.61595670
