16
b3lypvtz=-202042.20263997
C      -2.45971588      0.30603628     -1.09028654
N      -1.20095386      0.28413218     -0.91738871
C      -0.64738296     -0.18416248      0.28218961
C       0.65299149      0.05341209      0.54179207
C       1.59778886      0.82797264     -0.32723333
N       2.77760353      0.07051677     -0.77999740
N      -1.50561233     -0.83066556      1.19416830
H      -2.84394880      0.65604488     -2.04440124
H      -3.18874526      0.01989095     -0.32947681
H       1.06370694     -0.34227575      1.46712542
H       1.96785618      1.70676661      0.20980425
H       1.06631227      1.19407185     -1.20310069
H       3.33065588     -0.23113526      0.01494376
H       2.47478469     -0.77389689     -1.25312697
H      -1.01627895     -1.20032146      1.99605610
H      -2.06906181     -1.55638683      0.76901970
