16
b3lypvtz=-204415.5823569
O       3.03459186     -0.37110678      0.86408548
N       2.78318278     -0.41201626     -0.52343989
C       1.53888015     -0.34397597     -0.77193253
C       0.42259107     -0.24114608      0.22797720
C      -0.94707933     -0.36311193     -0.39814754
C      -2.14116609      0.26287998      0.26506870
C      -1.60846456      0.83704931     -1.02292778
H       3.99325611     -0.44300143      0.90097814
H       1.30393852     -0.36384778     -1.83148090
H       0.56974394     -1.00526641      0.99674437
H       0.51242835      0.71488082      0.75532230
H      -1.12897965     -1.31020409     -0.89358687
H      -3.08308024     -0.26690202      0.23785725
H      -1.97430900      0.82469517      1.17460433
H      -1.08543698      1.78310660     -0.97321231
H      -2.19009693      0.69836685     -1.92360994
