12
b3lypvtz=-202895.36197299
C      -3.00095334     -0.38164815     -0.00008279
C      -1.83158531     -0.11401633     -0.00006637
C      -0.44720510      0.28214557     -0.00008593
N      -0.02343068      1.47653586     -0.00015834
O       0.35091806     -0.81294866     -0.00007971
C       1.73217611     -0.79618135     -0.00017647
C       2.58065208      0.22228985     -0.00023356
H      -4.03448894     -0.62564377     -0.00015536
H      -0.80399303      2.12629982     -0.00017304
H       2.06546653     -1.82437344     -0.00019151
H       3.63434939     -0.02021559     -0.00030118
H       2.27549024      1.25233421     -0.00022175
