13
b3lypvtz=-213773.41512088
C       0.38606015      0.19403022     -0.71194296
C      -0.96823970     -0.15989923     -0.37855617
C      -1.00097237     -0.36437127      0.96235827
O       0.27294749     -0.16399482      1.49113294
C       1.07372415      0.17475882      0.46334110
N       2.37758401      0.49648714      0.80234724
N      -1.99600993     -0.33447211     -1.31383489
H       0.77845927      0.41309484     -1.69021342
H      -1.76059273     -0.65810155      1.66117484
H       3.02655719      0.39723068      0.03734082
H       2.70195905      0.00898470      1.62531420
H      -2.91505908     -0.35868265     -0.89703073
H      -1.97641749      0.35493523     -2.05143121
