14
b3lypvtz=-201300.74254728
C      -2.29260670      0.01385346     -0.34106171
C      -0.87592713     -0.44142151     -0.02083009
N       0.03355916      0.69312857      0.01832225
C       1.26251263      0.47030828      0.25604593
C       2.16357138      1.60886165      0.30120901
N       2.90916121      2.48460998      0.33548171
N       1.87852323     -0.73293450      0.52921343
H      -2.32295361      0.51290320     -1.30965034
H      -2.64350454      0.72020248      0.41121142
H      -2.97707595     -0.83555946     -0.36633941
H      -0.54539640     -1.17048688     -0.77626723
H      -0.86113541     -0.96679596      0.94423380
H       1.38939323     -1.57863447      0.29154856
H       2.88187890     -0.77803483      0.47776129
