15
b3lypvtz=-219540.46161719
C      -2.00296882     -0.06238375     -0.08694211
C      -0.61795424     -0.56383840      0.31282371
C       0.53619064      0.24754025     -0.31095446
C       1.90873501     -0.37746182     -0.03176691
F       1.95789391     -1.63577636     -0.61956741
C       0.54457824      1.63267023      0.16283138
N       0.56410656      2.71260980      0.55953589
H      -2.77866200     -0.67863749      0.36795620
H      -2.14030281     -0.10293700     -1.16942039
H      -2.16470377      0.96753476      0.23393665
H      -0.50915831     -0.54493690      1.39992612
H      -0.48641439     -1.59909760     -0.00304794
H       0.40492525      0.27574587     -1.39743187
H       2.07348093     -0.49681557      1.04061140
H       2.71025379      0.22578402     -0.45849029
