13
b3lypvtz=-213754.5077647
C      -1.64488297     -0.57320756     -0.46943113
C      -0.62999257      0.48487636     -0.19257484
C       0.67560288      0.40825892      0.18961792
O       1.15893134      1.64702261      0.30803674
N       0.07041692      2.53980648     -0.02580653
N      -0.91763493      1.82917031     -0.30097937
C       1.58178406     -0.73171121      0.47476971
H      -1.34023483     -1.22502622     -1.29022228
H      -1.82696865     -1.20147867      0.40430618
H      -2.58641055     -0.10314523     -0.74649017
H       1.95257410     -0.68441268      1.50011323
H       2.44748777     -0.71368450     -0.18951442
H       1.05932744     -1.67646859      0.33817497
