19
b3lypvtz=-171823.3621575
C       2.89188379      0.08884461      0.00043745
C       1.79216753     -0.39236142     -0.00012310
C       0.45772156     -0.98084768     -0.00021071
C      -0.72110926      0.03460109     -0.00003660
C      -0.65918037      0.91319694      1.25694365
C      -2.02762426     -0.77252404     -0.00011035
C      -0.65922819      0.91351457     -1.25679746
H       3.86616805      0.50938976      0.00022667
H       0.36145853     -1.63031366     -0.87577481
H       0.36153555     -1.63063158      0.87512412
H       0.26820066      1.48544687      1.29415358
H      -0.71746031      0.30777318      2.16433805
H      -1.49262447      1.61814877      1.27225371
H      -2.09909403     -1.41111812      0.88315872
H      -2.09919556     -1.41090135     -0.88352756
H      -2.89244293     -0.10670908      0.00002176
H      -1.49259156      1.61856684     -1.27189748
H       0.26821544      1.48567243     -1.29389749
H      -0.71761718      0.30832589     -2.16434216
