14
b3lypvtz=-201288.6492349
C      -3.05086805     -0.35166895      0.02722623
C      -1.65015964      0.04821861      0.34401445
N      -0.69071406     -0.12807203     -0.46353514
C       0.60666785      0.30355777     -0.16390203
N       1.00273959      1.50812164     -0.06716353
C       1.61089879     -0.81122254     -0.04861644
N       2.83279714     -0.64820191      0.22642604
H      -3.41522906     -1.06954071      0.76676400
H      -3.11342974     -0.78921349     -0.96642940
H      -3.71076572      0.51823482      0.08647934
H      -1.47995549      0.50994018      1.32486495
H       0.23626868      2.16869346     -0.18388134
H       1.22450962     -1.81660448     -0.20987831
H       3.01823810      0.35477263      0.33670919
