15
b3lypvtz=-191238.17896845
C       1.79158547     -1.26331352     -0.00098207
C       0.42732645     -0.64721073     -0.00904463
C       0.09846296      0.69736312     -0.00749665
C       0.94462045      1.92576162      0.00739133
N      -1.26027580      0.74593544      0.00171058
H      -1.84002994      1.56668868     -0.00983857
N      -1.84331912     -0.46633176      0.00159873
C      -0.82073246     -1.31070943     -0.00236885
H       2.49902190     -0.69129172     -0.60461895
H       1.76201538     -2.27528072     -0.40621489
H       2.20824122     -1.33043910      1.00783032
H       1.92276624      1.72138204     -0.42674787
H       1.10895220      2.29624098      1.02292325
H       0.48898862      2.73282064     -0.56973966
H      -1.00536757     -2.37383553     -0.00742706
