13
b3lypvtz=-213768.19872875
C       2.43923390      0.28349717      0.34432763
N       1.37064438      0.56570072     -0.26849289
C       0.29782919     -0.35025492     -0.18920598
O       0.44748564     -1.54894194     -0.32580946
C      -1.05366512      0.24979019      0.01230420
C      -1.24732967      1.57562413     -0.07710131
N      -2.01508276     -0.69509008      0.31839513
H       2.54320930     -0.60154208      0.97693500
H       3.29819715      0.94222302      0.24416419
H      -0.42291994      2.22875793     -0.30565628
H      -2.22756275      2.01280594      0.06139676
H      -2.97052435     -0.44065087      0.13289013
H      -1.76835595     -1.63205421      0.03747589
