11
b3lypvtz=-262154.52865255
N      -2.73377945     -0.43909424     -0.05275422
C      -1.47047805      0.09282385     -0.12958198
N      -0.43902640     -0.61454537      0.11831456
O       0.71861629      0.16291506     -0.18358559
N       1.81503238     -0.54389756      0.25663282
C       2.90500515      0.05192625      0.04728590
F       3.03170457      1.25106877     -0.53588858
H      -2.79639664     -1.33816992      0.40105929
H      -3.46921631      0.20064579      0.19726257
H      -1.40085140      1.12576347     -0.46241380
H       3.83948984     -0.39943611      0.34366903
