14
b3lypvtz=-226992.10952378
C      -2.61786428     -0.09833067     -0.00003783
O      -1.32661143     -0.72976104     -0.00003204
C      -0.28080649      0.10241487     -0.00000197
O      -0.37050061      1.30684454      0.00000917
N       0.91554843     -0.66572658     -0.00006657
C       2.03475917     -0.02525111     -0.73426066
C       2.03480734     -0.02531958      0.73411492
H      -2.73941335      0.52185818     -0.88669245
H      -3.33787776     -0.91103594     -0.00008634
H      -2.73945911      0.52179095      0.88665742
H       1.81762535      0.91442792     -1.22487500
H       2.64624567     -0.72701556     -1.28454032
H       1.81770572      0.91431366      1.22483199
H       2.64633034     -0.72713364      1.28429066
