17
b3lypvtz=-191982.64621832
C      -2.88506922     -1.04383497      0.22942156
C      -1.77064225     -0.56606928     -0.31164590
C      -1.37989297      0.87979915     -0.35015856
C      -0.05217364      1.17829559      0.36756554
N       1.07131100      0.55695508     -0.30491868
C       1.85267088     -0.16915703      0.37660796
N       2.99664814     -0.72765722     -0.14020208
H      -3.61768479     -0.39141296      0.69156313
H      -3.11034257     -2.10261464      0.22685290
H      -1.06558450     -1.25629302     -0.76487103
H      -1.26815968      1.19989717     -1.39087380
H      -2.16881223      1.48938741      0.09729354
H       0.09667379      2.26268146      0.35771159
H      -0.12849760      0.87051192      1.42163852
H       1.70857163     -0.37446467      1.44478561
H       3.07456715     -0.70866467     -1.14527294
H       3.35009686     -1.55700032      0.30519463
