11
b3lypvtz=-238729.41858553
O      -2.03275857     -1.80828043     -0.09168045
C      -1.19166676     -0.95952131     -0.08832635
C      -1.32142248      0.50582364      0.11624985
C      -0.12005388      1.05866470      0.03485861
C       0.90077986     -0.00947705     -0.24475951
O       1.84908713     -0.03855584      0.77464425
O       0.14205895     -1.22711697     -0.30171478
H      -2.27185221      0.97432746      0.31235394
H       0.15466671      2.09519988      0.15534893
H       1.37329731      0.10695004     -1.22621240
H       2.51786392     -0.69791413      0.55913791
