15
b3lypvtz=-191214.52159773
C       2.57000702     -0.27205904      0.11417132
N       1.69266305      0.61373218     -0.13916939
C       0.34336727      0.30125301     -0.05850628
C      -0.64293471      1.21178976     -0.05594381
C      -1.96095092      0.52214742      0.15877556
C      -1.59767675     -0.95462870     -0.12432374
N      -0.13972575     -1.01925469      0.11710685
H       3.61906571     -0.00210597      0.03371214
H       2.33878797     -1.28969536      0.43725651
H      -0.48185766      2.27675259     -0.08021595
H      -2.76392796      0.88256963     -0.48623497
H      -2.30380359      0.64895059      1.19252381
H      -1.82785530     -1.20066864     -1.16680921
H      -2.13023176     -1.65501823      0.51761787
H       0.33229538     -1.70488156     -0.45792273
