16
b3lypvtz=-227748.21565622
N      -2.94077365      0.16135522     -0.39660695
C      -1.70531626     -0.45928924      0.08503567
C      -0.50896109      0.29701773     -0.46854569
O       0.67534154     -0.30792142      0.02524726
C       1.85506025      0.30304977     -0.43377697
C       3.04236812     -0.42880532      0.15404100
O       4.18341677     -0.11220278     -0.05196436
H      -3.12940725      1.02191642      0.10392502
H      -3.73208060     -0.44765114     -0.23379215
H      -1.61547104     -0.50739670      1.17789983
H      -1.66714756     -1.48539043     -0.28401317
H      -0.54910115      1.35171101     -0.15949419
H      -0.52968981      0.27395428     -1.56448806
H       1.91359063      1.35986024     -0.13595181
H       1.93420140      0.27123381     -1.53004536
H       2.77376971     -1.29134146      0.79672992
