18
b3lypvtz=-181903.88097238
C      -2.22206247      0.24510555      0.16361916
C      -0.90570809     -0.17447041     -0.47466258
N      -0.27551158     -1.28857936      0.26074248
C       1.17465540     -1.20792390      0.02046213
C       1.48542945      0.25610929     -0.27154662
C       0.91202075      1.26835735      0.68196850
C       0.16476084      0.91321372     -0.57630410
H      -2.06255151      0.63795712      1.17081785
H      -2.70578989      1.02562609     -0.42489396
H      -2.90558079     -0.60268669      0.22971865
H      -1.11224324     -0.52003666     -1.49481517
H      -0.46411931     -1.18242018      1.24952410
H       1.71812802     -1.61452230      0.87570321
H       1.43930853     -1.81319019     -0.85222011
H       2.38075276      0.50246068     -0.82615708
H       1.38323625      2.24050701      0.72075404
H       0.53023671      0.92549990      1.63662629
H       0.07404818      1.65719299     -1.35660480
