15
b3lypvtz=-216921.42198139
C       2.56162409     -0.35844407     -0.37980037
C       1.32784973     -0.77554354     -0.11439946
C       0.45948569     -0.22917195      0.98140784
C      -0.65861850      0.67648251      0.43704492
O      -0.17335744      1.77408785     -0.31788302
C      -1.71288787     -0.08830721     -0.36006297
O      -2.02174197     -1.23475291     -0.16369612
H       3.13874596     -0.77705549     -1.19395075
H       3.04634462      0.40137474      0.22273332
H       0.88386351     -1.54661661     -0.73665602
H      -0.01345915     -1.04648517      1.52942148
H       1.05777074      0.35381080      1.68280720
H      -1.19486763      1.11440248      1.28711176
H       0.54874343      1.45567986     -0.87484441
H      -2.19725321      0.52239373     -1.14949440
