11
b3lypvtz=-236361.53226852
O       1.31808784     -0.08452536      0.69498777
C       2.43193506      0.00718235      0.24594855
C       3.23998178      1.29054416      0.02887371
N       4.47957064      0.78871712     -0.52429461
C       4.50111798     -0.57132194     -0.65950860
O       5.38263766     -1.27276840     -1.08993648
N       3.25005898     -1.01227414     -0.18170606
H       2.69786446      1.95135459     -0.65121722
H       3.36872187      1.80600389      0.98316397
H       5.26411146      1.34610645     -0.80928329
H       2.99631227     -1.98651872     -0.16792774
