16
b3lypvtz=-204453.74160961
C       2.73127861      0.31075101     -0.02401358
C       1.56869110     -0.63273094      0.06063340
C       0.28745063     -0.26743991     -0.00742095
N      -0.26063714      1.01052745     -0.20062865
C      -1.66875131      0.96077337      0.18504355
C      -1.97867757     -0.49395589     -0.15303636
O      -0.74044505     -1.17414215      0.08474749
H       3.24628613      0.43145206      0.93549520
H       2.43322047      1.30557295     -0.36125573
H       3.47911771     -0.04723590     -0.73675813
H       1.76507581     -1.68883256      0.18167321
H       0.28071453      1.76827220      0.18297010
H      -1.82617499      1.15793464      1.25259254
H      -2.26882767      1.66207107     -0.39454501
H      -2.26143904     -0.60764074     -1.20351218
H      -2.74318623     -0.94059667      0.47920812
