14
b3lypvtz=-201264.05113963
N       1.27939627     -0.31325672      1.88714545
C       0.87311753      0.13508599      0.77626653
N       1.48986293      0.99108868     -0.11751989
C       0.44840916      0.88530715     -1.15640246
C      -0.33013279      0.02925974     -0.14651264
C      -1.24195871     -1.11655423     -0.31597345
N      -1.73429679      0.17417670      0.19348050
H       0.58651481     -0.91878735      2.31990612
H       2.48127830      1.12830693     -0.23144722
H      -0.01923293      1.83455066     -1.41812370
H       0.75606969      0.35269562     -2.05902201
H      -1.13426347     -1.94818309      0.37160226
H      -1.59658485     -1.38024153     -1.30473050
H      -1.85827914      0.14665146      1.20143103
