19
b3lypvtz=-192744.82255738
C      -2.52282187      0.57638251     -0.55706204
C      -1.85721388     -0.77371878     -0.28846517
C      -0.72766124     -0.75578391      0.76269024
C       0.52361391     -0.01372055      0.37836516
N       0.45897566      1.40345146      0.40594252
C       1.61257982     -0.66048043     -0.05998666
N       2.75703683     -0.05846763     -0.62475518
H      -1.81187938      1.30071110     -0.95354641
H      -3.33489664      0.47197134     -1.27887827
H      -2.95289311      0.99227014      0.35858152
H      -1.45255104     -1.17438218     -1.22112426
H      -2.61722394     -1.48437877      0.05042157
H      -1.12342919     -0.34043044      1.69899536
H      -0.45045673     -1.78931343      0.97878359
H       1.34415451      1.83069612      0.65039644
H      -0.25164836      1.74376575      1.03798734
H       1.61516727     -1.74235017     -0.07659059
H       3.63227409     -0.31872227     -0.19256081
H       2.69668229      0.94173115     -0.73721036
