16
b3lypvtz=-181156.60892459
C      -0.65677020      1.87912893     -0.41581176
C      -0.03195393      0.75706815      0.42535071
C       1.46206200      0.62143264      0.25221989
C       1.74795067     -0.63420328     -0.12701445
C       0.52268786     -1.42173162     -0.24709386
C      -0.52881316     -0.63181584      0.06870852
N      -1.86904028     -0.96045822      0.17911444
H      -1.74041268      1.93098459     -0.28084077
H      -0.45001860      1.72443067     -1.47543690
H      -0.24846964      2.84865492     -0.12811863
H      -0.26485940      0.93939446      1.48190082
H       2.15573962      1.43297316      0.40856036
H       2.73637807     -1.02489421     -0.32549020
H       0.47739017     -2.46245846     -0.53349957
H      -2.14194037     -1.81705452     -0.27715771
H      -2.51771315     -0.21174536     -0.01067590
