18
b3lypvtz=-205225.0405559
C      -0.69790029     -0.32473804     -1.38929725
C      -0.36620745     -0.00399329      0.07717992
C      -1.41228550     -0.65279244      0.99204591
C      -0.35831180      1.51624530      0.30571724
N       0.93646319     -0.59443320      0.45762755
C       1.99474390     -0.25357364     -0.12374640
O       3.19802286     -0.77508552      0.20265771
H      -0.66256041     -1.40136648     -1.56097587
H       0.00662586      0.15143135     -2.07333353
H      -1.69884875      0.02902547     -1.64260082
H      -2.41189272     -0.27041846      0.77754859
H      -1.17900047     -0.44943510      2.03768519
H      -1.41669263     -1.73455885      0.85494764
H      -1.34681451      1.93804208      0.11568180
H      -0.08175804      1.74469401      1.33578117
H       0.35048548      2.01781373     -0.35537030
H       2.10828572      0.46996992     -0.93193170
H       3.03794557     -1.40672682      0.92038317
