11
b3lypvtz=-210586.28593122
N       2.37583284     -0.37554928      0.00014180
N       1.61847057      0.61947261      0.00016061
C       0.26395965      0.30178522     -0.00002051
C      -0.81690951      1.16590827     -0.00010527
C      -1.93832759      0.32267781      0.00005502
N      -1.58611541     -0.96453084     -0.00034014
N      -0.25168968     -0.95707519     -0.00008956
H       0.27532455     -1.81407329      0.00001399
H       3.33692065     -0.01552922      0.00008478
H      -0.77578783      2.24032949     -0.00021159
H      -2.98220824      0.58845941      0.00038587
