15
b3lypvtz=-214509.08284933
C      -2.08692095     -1.22955368      0.33991372
O      -1.98032489     -0.13895870     -0.56443886
C      -1.40774308      1.01389100     -0.02327502
C       0.08283178      1.00760272      0.15739495
N       0.82911880      0.01528545     -0.10317219
C       2.21273027      0.18559187      0.10989627
N       3.08218150     -0.70506284     -0.10196134
H      -2.64176183     -0.93801045      1.24029681
H      -1.10609253     -1.61319222      0.62548941
H      -2.64119768     -2.00943575     -0.17811033
H      -1.86063008      1.27615567      0.94857505
H      -1.65062440      1.84088761     -0.70030108
H       0.49357344      1.95630019      0.53694964
H       2.53616599      1.16420225      0.48336077
H       2.62546867     -1.55176311     -0.44854980
