12
b3lypvtz=-226220.32202998
O      -2.00324073      0.71839274      0.63016685
C      -1.28187707      0.15604556     -0.46385136
C       0.16772708     -0.04830859     -0.16185078
C       0.90092174     -1.18939616     -0.19486162
O       2.17224205     -0.95408967      0.16085613
N       2.30719332      0.40680183      0.45739483
C       1.12551472      0.92037963      0.26225835
H      -1.89174147      0.14331168      1.39430953
H      -1.72691465     -0.78972964     -0.79178977
H      -1.40607756      0.87030993     -1.27886471
H       0.66071275     -2.20831406     -0.44986558
H       0.97543981      1.97459674      0.43619812
