10
b3lypvtz=-225456.33483036
N       2.94739609      0.39228322     -1.47922248
C       1.95730302      0.00433504     -1.04087205
C       0.70799613     -0.50276474     -0.52053642
O       0.53277760     -0.48470225      0.88688776
C      -0.25643869      0.42688709      0.11889808
C      -1.71582855      0.10608200      0.03328862
O      -2.55749785      0.93848812     -0.16640545
H       0.33606234     -1.38925336     -1.02444398
H       0.00494226      1.47562496      0.20337058
H      -1.95661236     -0.96698006      0.17303534
