13
b3lypvtz=-213756.6290291
C       3.15644657     -0.55616967     -0.00000244
C       1.83824792     -0.46773090     -0.00000599
O       1.23808264      0.78332313     -0.00000049
C      -0.09788812      0.87967697      0.00000087
N      -0.89227621     -0.10756847      0.00001641
C      -2.26450364      0.18296181      0.00001813
N      -3.18622363     -0.68204837     -0.00000122
H       3.78612120      0.32219517      0.00001137
H       3.62421610     -1.52863922     -0.00001446
H       1.14980849     -1.29814936     -0.00001404
H      -0.39286575      1.92974944      0.00002334
H      -2.54551650      1.24154024     -0.00005224
H      -2.77884908     -1.61945879      0.00002477
