10
b3lypvtz=-223082.66738152
N       0.86709168     -0.17036496      0.18583364
C       0.24688374      0.01855784      1.25560404
O       0.80386431      0.36238944      2.48751895
C      -0.27381074      0.45476333      3.33800907
N      -1.43452357      0.23103539      2.87451620
C      -1.23456202     -0.07019303      1.50478350
N      -2.15440393     -0.35275987      0.68924467
H       1.87343175     -0.04787947      0.28188651
H      -0.02402284      0.71798466      4.35566621
H      -1.74864838     -0.52843333     -0.23186278
