18
b3lypvtz=-181901.2474971
C       3.09975003     -0.21973263     -0.35281135
C       1.95574894     -0.14252164      0.33277270
N       0.69427228     -0.50352092     -0.10549656
C      -0.49577595      0.15975580      0.43362541
C      -0.68812460      1.58092203     -0.10206485
C      -1.67740109     -0.75759179      0.23357326
C      -2.84220746     -0.44752677     -0.32033923
H       4.03786039      0.01253640      0.12674726
H       3.13169403     -0.53836947     -1.38719356
H       1.96886257      0.18797526      1.36692324
H       0.63150563     -0.70967047     -1.09281895
H      -0.32582337      0.22624570      1.51519933
H      -0.87447812      1.57219459     -1.17784535
H      -1.52589084      2.08168913      0.38565789
H       0.21131198      2.16965476      0.07774554
H      -1.50755886     -1.76975918      0.58718436
H      -3.62791282     -1.18545853     -0.41401294
H      -3.06333373      0.54293972     -0.69577520
