20
b3lypvtz=-182672.49044444
C       1.81343957     -1.71611884      0.07721910
N       1.32997799     -0.71749250     -0.51966101
C       0.83655338      0.40355994      0.27320170
C       1.72707386      1.61777581     -0.00244785
C      -0.62427292      0.69149233     -0.09865140
C      -1.60118124     -0.43613899      0.23448678
C      -3.04861741     -0.08682571     -0.11238745
H       1.87570705     -1.79579354      1.17054558
H       2.19587405     -2.55437695     -0.50203749
H       0.88564746      0.16495958      1.34811865
H       1.71871472      1.86051609     -1.06592188
H       2.75851243      1.41957437      0.29119109
H       1.37163765      2.48543570      0.55562585
H      -0.66804339      0.91190284     -1.16942934
H      -0.93148714      1.60231514      0.42476127
H      -1.52937550     -0.67380271      1.30107860
H      -1.30612374     -1.34046697     -0.30223063
H      -3.72596159     -0.90649668      0.13302641
H      -3.38575826      0.79688511      0.43441500
H      -3.15717997      0.12482396     -1.17843101
