14
b3lypvtz=-203705.6584117
C       2.88096995      0.19354179     -0.02863630
C       1.71543424      0.19565363      0.62454671
C       0.42205096      0.02809116     -0.00366544
C      -0.71394502      0.04040023      0.71037697
N      -2.02000342     -0.10915893      0.23396240
C      -2.43722824     -0.30152182     -1.05621165
O      -1.72383536     -0.37650058     -2.03031201
H       3.82002885      0.32340962      0.49092548
H       2.92623154      0.06154642     -1.10262369
H       1.71904758      0.33133283      1.70313046
H       0.38120233     -0.10966305     -1.07423090
H      -0.68034530      0.17816879      1.78426248
H      -2.75267170     -0.07160627      0.92317988
H      -3.53693639     -0.38369382     -1.11140325
