14
b3lypvtz=-203654.61618241
C       1.57409350     -0.49001654      0.07994842
C       0.71592405      0.14693403     -0.94907144
C      -0.26027591      1.19321494     -0.48049035
O      -0.24530689      1.43514154      0.93594768
C      -1.23312752      0.53956769      0.40398858
C      -0.86056693     -0.92812078      0.49505383
N       0.33827315     -1.15342509     -0.34706262
H       1.60492844     -0.01658162      1.05245499
H       2.47940873     -1.00307399     -0.22149072
H       0.99165977      0.14936304     -1.99642280
H      -0.48791613      2.05025719     -1.10184826
H      -2.26366764      0.86086734      0.51517173
H      -0.67904844     -1.24946106      1.52231392
H      -1.67447817     -1.53466671      0.09130705
