15
b3lypvtz=-212141.1708358
C      -2.87863184     -0.30875559      0.03866147
N      -1.49215024     -0.69415500     -0.01123142
C      -0.45486295      0.19796409      0.00543397
N      -0.54155351      1.47801126      0.01313925
N       0.77425260     -0.49856024      0.01026908
C       1.83397029      0.21761783      0.00562046
N       3.06898953     -0.32899210     -0.01430117
H      -3.15659728      0.30864370     -0.82136830
H      -3.11826191      0.25364978      0.94795734
H      -3.49681695     -1.20417660      0.02141078
H      -1.23475278     -1.66324277      0.03837811
H      -1.50412461      1.79758456      0.01294457
H       1.79673103      1.30725813      0.00117022
H       3.88123537      0.24462543      0.11044342
H       3.16468324     -1.32680148      0.07109922
