17
b3lypvtz=-191964.27074544
C       2.14909451      0.87001144      0.03847777
C       1.11161852     -0.22971740      0.04693870
N       1.30258389     -1.41461026     -0.36626122
C      -0.22601402      0.16040284      0.62645063
C      -1.38696006     -0.84530887      0.46730003
N      -1.95688790     -0.00077535     -0.61438868
C      -1.08384951      1.13248940     -0.24303067
H       3.07786162      0.53651449     -0.42339254
H       2.36488707      1.19513744      1.05976316
H       1.78695664      1.74766202     -0.50135165
H       2.25133404     -1.52980857     -0.72368532
H      -0.06508933      0.52214371      1.64368718
H      -1.10084934     -1.84529547      0.14819978
H      -2.00653445     -0.90620734      1.36798074
H      -2.94962175      0.18077011     -0.54582846
H      -1.56460327      1.91152771      0.35856093
H      -0.58677464      1.60773510     -1.09237737
