16
b3lypvtz=-181122.94139724
C       2.43487414      1.14417699      0.16253529
C       1.88978971     -0.18878246     -0.34282445
N       0.60549171     -0.48504301      0.27330267
C      -0.39163903     -0.67705997     -0.47074223
C      -1.75264245     -1.00446044      0.10175090
C      -2.80898241     -0.16374257     -0.45261637
C      -3.65974044      0.53782874     -0.92397167
H       1.78436434      1.96759635     -0.13552595
H       3.42966794      1.32931965     -0.24552863
H       2.50031425      1.14193980      1.25063649
H       2.57805042     -0.98894320     -0.05696985
H       1.82614289     -0.18482383     -1.44046151
H      -0.33149623     -0.62754741     -1.56645742
H      -1.70375531     -0.90420881      1.18688460
H      -1.98198177     -2.05396505     -0.11721823
H      -4.41845778      1.15771525     -1.33158639
