18
b3lypvtz=-228513.33495824
C      -2.93954509     -0.34403300     -0.24300839
N      -1.49817273     -0.20305054     -0.40357803
C      -0.78081516      0.07571869      0.83608031
C       0.66065044      0.43881246      0.49484168
O       0.70256738      1.46256987     -0.46212058
O       1.27373686     -0.75414322      0.04039506
C       2.65662710     -0.61772521     -0.24644236
H      -3.39179684     -0.58603660     -1.20485980
H      -3.23235468     -1.11962284      0.47977441
H      -3.36415476      0.60278863      0.09543702
H      -1.10866302     -1.03913898     -0.82215928
H      -0.79018833     -0.75926356      1.54945118
H      -1.24767016      0.93697676      1.31786313
H       1.19986019      0.81296110      1.37254713
H      -0.04590250      1.28304394     -1.05478476
H       2.83021663      0.11228291     -1.03932506
H       3.01322212     -1.59492609     -0.56594814
H       3.21387153     -0.30941132      0.64653945
