13
b3lypvtz=-237028.26365104
C      -1.83135458     -0.14628876     -0.85308803
C      -1.17297696     -0.02720731      0.48223261
C       0.13916971      0.14395254      0.70622123
N       1.01609151      0.22514558     -0.37856783
N       2.20079963      0.38223859     -0.08543878
O       2.94615272      0.44542044     -1.26112473
O       0.70731260      0.24856475      1.94314854
H      -1.10590230     -0.07848049     -1.65935303
H      -2.57816216      0.64115927     -0.98992872
H      -2.36175581     -1.09883894     -0.94135274
H      -1.81748322     -0.08466208      1.35461618
H       3.84317312      0.56727419     -0.92610658
H       0.01493574      0.17886186      2.60874187
