14
b3lypvtz=-203706.72150687
C      -1.81185956      0.10221157     -0.32685584
C      -0.54127275     -0.17789212      0.46876840
C       0.56422084     -0.91742611     -0.30425334
C       1.77537627     -0.00404984     -0.16533597
O       2.89699541     -0.17692797     -0.56994240
C       1.26503636      1.18246728      0.59725057
N       0.04442222      1.10368346      0.93769685
H      -2.29704255     -0.83191020     -0.61295285
H      -1.58183191      0.66112707     -1.23606478
H      -2.51062819      0.69076367      0.26669878
H      -0.81518067     -0.72412253      1.37516976
H       0.32921546     -1.03970988     -1.36316690
H       0.79601358     -1.90610558      0.09180993
H       1.88653547      2.03789121      0.84117782
