15
b3lypvtz=-214508.36664139
C      -0.83167472      0.83281703      0.84922426
C      -0.31111026     -0.20954519     -0.09350523
N      -0.37596662     -0.45705320      1.34945998
C       1.08092091     -0.13180282     -0.72076816
N       2.11621744      0.52759692      0.05771456
C      -1.36254862     -0.87008025     -0.92106199
O      -2.35664390     -1.38395635     -0.46409604
H      -0.19496518      1.67449572      1.09141650
H      -1.89524342      1.03605135      0.83040988
H      -1.17967601     -1.05389470      1.53507186
H       1.41147808     -1.15563352     -0.92199942
H       1.00552210      0.36375483     -1.69244960
H       1.96065849      1.52644093      0.10754669
H       2.11228146      0.17123485      1.00683163
H      -1.17924977     -0.87042559     -2.01379492
