14
b3lypvtz=-286241.58164005
C       1.52155035     -1.27105643      0.02036115
C       0.81082803     -0.00000076     -0.45364163
C       1.52155160      1.27105476      0.02035966
C      -0.64506887      0.00000023     -0.01896153
F      -0.78266967      0.00000148      1.32584429
F      -1.30754466     -1.08377648     -0.48011650
F      -1.30754372      1.08377668     -0.48011842
H       1.02347781     -2.16939115     -0.34135205
H       1.55824886     -1.31388252      1.10952701
H       2.54628079     -1.27840745     -0.35099053
H       0.77244635     -0.00000138     -1.54608228
H       2.54628187      1.27840465     -0.35099248
H       1.55825063      1.31388182      1.10952546
H       1.02347963      2.16938956     -0.34135414
