15
b3lypvtz=-214484.68247601445
C      -2.25226390     -0.20533653      0.38229857
C      -0.83005938      0.03224081      0.04568884
N       0.05410401     -0.84565375     -0.36065479
O       0.07322350     -2.08293603     -0.56308522
C       1.17139600      0.14473373     -0.49215712
C       0.13841650      1.19178530      0.02988946
N       2.27262955     -0.21651522      0.36380628
H      -2.34446463     -0.93445621      1.19176998
H      -2.73286041      0.72026672      0.69391864
H      -2.79808159     -0.61058090     -0.47393982
H       1.42914464      0.27738163     -1.54758755
H      -0.09188642      2.00909822     -0.65676106
H       0.40688831      1.59157757      1.00809778
H       3.14627204      0.15775412      0.01647588
H       2.35754178     -1.22935947      0.36224011
