12
b3lypvtz=-223799.56792057
N      -2.10035723      0.31632210      1.47355265
C      -1.11236361     -0.15992684      0.84262066
C      -0.42211521      0.47287996     -0.33974828
N      -0.90628494      1.40616323     -1.06134290
C       0.91131723     -0.02284732     -0.70772351
N       1.45482953     -0.96160449     -0.03893522
O       2.70749166     -1.28610146     -0.53332663
H      -2.39158800      1.22430017      1.09781162
H      -0.69989005     -1.10894617      1.17435493
H      -1.84185816      1.67492133     -0.74871758
H       1.40173106      0.44232001     -1.55925903
H       2.99898772     -1.99748052      0.04781329
