15
b3lypvtz=-193591.15589881
C       1.91054687      0.80954340     -0.28406820
O       1.75122571     -0.57405975     -0.74530241
C       0.62772160     -0.77556192      0.19483147
C      -0.77294590     -1.17582624     -0.27716379
C      -1.66021251     -0.01405718      0.28558576
C      -0.69476485      1.16870560      0.31422225
C       0.54604401      0.70441547      0.34174500
H       2.03089366      1.51667566     -1.10541788
H       2.75399774      0.88988240      0.40773481
H       0.98567178     -1.35654241      1.05092655
H      -1.09170476     -2.16302410      0.05769107
H      -0.79651133     -1.15634978     -1.36786856
H      -2.05592813     -0.25955684      1.27635828
H      -2.52280802      0.18929424     -0.35101689
H      -1.01122589      2.19646145      0.20154254
