14
b3lypvtz=-224580.46688957
C      -2.03568105      1.18179255      0.51584009
C      -1.32256929      0.07645374      0.26838188
N       0.05398615      0.05093361      0.12376663
C       0.85456288     -1.07087864      0.21840466
N       2.12749572     -1.06491095      0.12084063
N       2.67681929      0.23305764     -0.09838618
O      -1.85321105     -1.16615605      0.09669704
H      -3.11377502      1.14859811      0.55467427
H      -1.55043819      2.13225462      0.67141442
H       0.53830975      0.92974417      0.23577648
H       0.35126730     -2.01198166      0.38147855
H       2.39354018      0.57143708     -1.01804714
H       3.67973122      0.10862772     -0.13468801
H      -2.80003790     -1.11897191      0.26120030
