17
b3lypvtz=-194356.51032236
C      -2.33196351      0.08549040     -0.53225520
C      -0.97811725     -0.57149190     -0.39874789
O       0.07996494      0.09519179     -1.16358343
C       0.93483740      0.10002188     -0.00299916
C       2.37677387     -0.21631548     -0.21284485
C       0.33899440      0.96964740      1.05331249
C      -0.15745841     -0.45427126      0.88063501
H      -3.07755872     -0.47757315      0.03380730
H      -2.64167300      0.09964530     -1.57872321
H      -2.32000648      1.11181303     -0.16641081
H      -1.03053576     -1.61428122     -0.72563829
H       2.49734103     -1.17624795     -0.71750934
H       2.84636174      0.55348701     -0.83022431
H       2.90478134     -0.25219372      0.74061890
H       0.94774835      1.11944062      1.93612393
H      -0.27630139      1.81592701      0.77325755
H      -0.11318855     -1.18818976      1.67158132
