15
b3lypvtz=-191216.93201849
N      -1.46579157      0.82975299      0.53805973
C      -0.98612906      0.09631879     -0.60539693
C      -0.71826892     -1.37169329     -0.41163045
C       0.43378320     -0.41567354     -0.57096310
C       1.33051135     -0.11777171      0.61663672
C       2.03631694      1.15512432      0.47153259
N       2.58020015      2.16060629      0.34002383
H      -1.31778825      1.82545434      0.42332213
H      -2.45759662      0.68047890      0.67698429
H      -1.34665859      0.38908173     -1.58852069
H      -0.90188630     -1.76407437      0.57981124
H      -0.94010060     -2.05442655     -1.21947426
H       0.94905253     -0.43323008     -1.52250088
H       2.07240711     -0.90958042      0.74556570
H       0.73204863     -0.07036741      1.52675007
