16
b3lypvtz=-204436.96127837
C      -1.08560017      1.11909160     -0.48981197
C      -0.64266275     -0.24680171     -0.02491522
C      -1.62482217     -1.32840172      0.10437362
O      -0.73604677     -1.28793634     -1.01829527
C       0.62994383     -0.29801116      0.80696584
C       1.84597028      0.11061893      0.02488049
N       2.59769340      1.05516965      0.40900018
H      -1.30736310      1.76198445      0.36429855
H      -0.30201374      1.60429467     -1.07385357
H      -1.97733388      1.03998204     -1.10983100
H      -2.66792311     -1.13484475     -0.12601701
H      -1.44870020     -2.13687676      0.80756213
H       0.77286837     -1.32550227      1.15338312
H       0.54264553      0.34982757      1.68078041
H       2.02670045     -0.46904844     -0.88732110
H       3.37664404      1.18645424     -0.23674693
