12
b3lypvtz=-252166.74629389
C       2.01035985      0.07511567     -0.09071757
N       0.57749832      0.09605149     -0.30547508
C      -0.31306827     -0.19110657      0.66700808
O      -0.05587158     -0.49887116      1.81351270
C      -1.75471801     -0.09302483      0.17879038
N      -2.07502854      0.21913191     -0.98894503
F      -2.63520606     -0.37901845      1.14448963
H       2.19349511     -0.23969603      0.93313760
H       2.49471234     -0.62651249     -0.77177293
H       2.44342064      1.06588037     -0.24049859
H       0.19754923      0.33840557     -1.20709096
H      -3.08314302      0.23364455     -1.13243823
