15
b3lypvtz=-193594.28720874
C      -2.14863258     -1.05967593     -0.36047765
C      -1.64952031     -0.33046988      0.62962267
C      -0.75170438      0.83387466      0.45372521
O      -0.28648446      1.14071412     -0.85435252
C       0.69499796      0.73992025      0.12326007
C       1.39633516     -0.53438803     -0.10004133
C       2.69802517     -0.69093791      0.11531661
H      -2.81499435     -1.88900130     -0.16631007
H      -1.90766743     -0.83865085     -1.39185189
H      -1.91613615     -0.54958603      1.65920590
H      -1.03658536      1.70839995      1.03827882
H       1.32338241      1.55781941      0.46758163
H       0.79183970     -1.36232354     -0.44957862
H       3.32018534      0.12779195      0.45750017
H       3.18728328     -1.64261787     -0.04117400
