11
b3lypvtz=-189688.83499761517
C      -1.30274744     -0.70122688     -0.00509382
C      -0.02416789     -1.17343848     -0.09770860
C       0.82910516     -0.01123466     -0.03543644
N       2.13858090     -0.02919672     -0.09108272
N       3.26237639     -0.04478727     -0.13806634
C       0.01608149      1.17367679      0.09740875
C      -1.27807747      0.73646475      0.11440519
H      -2.19439056     -1.30837355     -0.01871941
H       0.31339359     -2.19136819     -0.19655062
H       0.38826797      2.18186864      0.16710485
H      -2.14842214      1.36761556      0.20373917
