13
b3lypvtz=-190466.43289028
C      -2.70553688     -0.33946726      0.00000908
C      -1.68409102      0.51742807      0.00000891
C      -0.26511596      0.19678024      0.00004141
C       0.37340263     -1.03383568      0.00000727
N       1.69974974     -0.77945043     -0.00001524
H       2.45135335     -1.44636009     -0.00012207
N       1.99137695      0.53416428      0.00020151
C       0.80597592      1.12604088     -0.00000383
H      -2.56236111     -1.41300585      0.00002237
H      -3.72773002      0.01188423     -0.00000692
H      -1.90626441      1.58013646     -0.00001971
H      -0.00941286     -2.03961587     -0.00001333
H       0.74405668      2.20287803     -0.00013745
