23
b3lypvtz=-173374.5486844
C      -3.02471122      0.24915876      0.00000712
C      -1.65427927     -0.42977140     -0.00000128
C      -0.50482885      0.58183324      0.00001296
C       0.94002699      0.02605244     -0.00000164
C       1.20263123     -0.82140497     -1.25553214
C       1.20264830     -0.82142103      1.25551442
C       1.90630519      1.22242984     -0.00000102
H      -3.15164980      0.88265939      0.88088079
H      -3.15164802      0.88268284     -0.88084996
H      -3.83322781     -0.48385122     -0.00000351
H      -1.58010978     -1.08120062      0.87422774
H      -1.58010960     -1.08117578     -0.87424858
H      -0.61694663      1.23341834     -0.87393331
H      -0.61694053      1.23338677      0.87398357
H       0.57828166     -1.71543370     -1.28114581
H       1.00643288     -0.24873966     -2.16514189
H       2.24421547     -1.14853512     -1.28782789
H       0.57830617     -1.71545533      1.28112023
H       1.00645229     -0.24877026      2.16513379
H       2.24423557     -1.14854289      1.28779738
H       2.94592841      0.88759029     -0.00001350
H       1.75755451      1.84887019      0.88240422
H       1.75753784      1.84888390     -0.88239369
