17
b3lypvtz=-191978.12949298
C      -2.98825526      0.34618082      0.33531149
N      -1.76201005     -0.12896052     -0.27513450
C      -0.57043177      0.49859440     -0.04033488
C       0.64430653     -0.08779008     -0.16971405
C       1.86424129      0.65928212      0.04218357
C       3.11681461      0.20457713     -0.09978195
N       0.66503582     -1.48241538     -0.52169457
H      -3.07998881      1.42253277      0.18341748
H      -3.04500416      0.15033446      1.41362800
H      -3.84273877     -0.12959843     -0.14479044
H      -1.65792809     -1.13091800     -0.36694660
H      -0.63746872      1.54868433      0.21891622
H       1.72451566      1.68885800      0.36082064
H       3.96791414      0.83937082      0.10065386
H       3.32939500     -0.80592362     -0.42472548
H       0.90836487     -1.61389357     -1.49853563
H       1.36323771     -1.97891527      0.02010364
