14
b3lypvtz=-203674.85984511
O       2.80712427      0.07152771      0.75836913
N       1.89525534     -0.77784333      0.08613000
C       0.72589992     -0.27120490      0.04635680
C       0.23349740      0.99871384      0.57429592
C      -1.06990294      1.13332671      0.30938280
C      -1.63886045     -0.04032998     -0.44129957
C      -0.43076373     -0.99365974     -0.62344890
H       3.62464524     -0.43235132      0.70969851
H       0.85853277      1.70366476      1.09779549
H      -1.67245514      1.98582310      0.59418339
H      -2.06691941      0.27282738     -1.39741225
H      -2.45463126     -0.50775182      0.11683693
H      -0.21096340     -1.17926966     -1.67448007
H      -0.60035863     -1.96347276     -0.15640818
