14
b3lypvtz=-224568.10704882
N      -2.62655662     -0.13584005      0.03309700
N      -1.38409641     -0.80633513     -0.07564481
C      -0.37252371     -0.02294800     -0.07233185
N      -0.42194618      1.35290773      0.06722445
C       0.97314681     -0.64671249     -0.16037681
C       2.08465722     -0.23424862      0.70805030
O       2.03154642      0.18870098     -0.65887214
H      -2.66716743      0.40514547      0.89645812
H      -3.33661749     -0.85266303      0.09402202
H      -1.28966625      1.75124498     -0.26693234
H       0.39653957      1.81602156     -0.30286807
H       0.95733383     -1.66126755     -0.53953516
H       1.92490010      0.54835914      1.44164672
H       2.86685014     -0.94907198      0.94059258
