11
b3lypvtz=-217982.71428422
C       2.73231377     -0.64481302      0.00013731
C       1.83241149      0.15273125      0.00006346
C       0.86347729      1.18156861     -0.00000727
C      -0.47665574      1.07564143      0.00000090
C      -1.28462972     -0.14169515      0.00006737
N      -2.53647524     -0.25428830      0.00004965
F      -0.56392475     -1.27546162      0.00008971
H       3.50048139     -1.37774071      0.00018312
H       1.27385924      2.18673742     -0.00007453
H      -1.05302086      1.99143709     -0.00005653
H      -2.98468586      0.65756199      0.00002181
