13
b3lypvtz=-237082.09250557
C      -0.10398348      0.23057431      0.65114310
C      -1.49550416      0.51398322      0.13340559
N      -1.96276320      0.31003704     -1.01821549
O      -2.25902964      1.05645110      1.11452314
N       0.72869576     -0.34863547     -0.38622569
C       1.92059416     -0.64406256     -0.11866251
O       2.75670391     -1.18314740     -1.02331750
H      -0.20390817     -0.43377193      1.51609217
H       0.30555877      1.17419805      1.02708960
H      -1.24295910     -0.09932253     -1.60911666
H      -3.13065663      1.21398347      0.72465205
H       2.42462830     -0.51201794      0.84033651
H       2.26262345     -1.27826936     -1.85170429
