12
b3lypvtz=-252151.91938081
N      -1.34556320      1.20216495      0.31683733
C      -0.51897844      0.08418660      0.12510387
C      -0.75938573     -1.10248600      0.68752774
F      -0.09965652     -2.22313674      0.30553817
N       0.52692332      0.32939925     -0.77480955
C       1.79835634     -0.18627794     -0.71894477
O       2.64052968      0.03391525     -1.55723562
H      -0.86100134      2.00226501      0.70486064
H      -2.18752847      1.00090929      0.83569314
H      -1.49200197     -1.27339108      1.46061280
H       0.32602024      0.93652424     -1.55821627
H       1.97248609     -0.80407283      0.17293254
