17
b3lypvtz=-215249.59711582
C      -2.55902023     -0.02923478      0.12261110
C      -1.21631502      0.63390933      0.05163370
C      -0.03567521      0.06514278     -0.20776432
C       0.21435368     -1.39913614     -0.47472599
N       1.23185429     -1.91777230      0.45914709
N       1.17570526      0.78542921     -0.33174863
O       1.14304497      2.07368249      0.28175362
H      -2.51913519     -1.10830790     -0.01922371
H      -3.03497556      0.15788325      1.08968666
H      -3.23705716      0.37332436     -0.63674176
H      -1.20829849      1.70180755      0.22994913
H      -0.72861932     -1.94798177     -0.44622963
H       0.62127864     -1.50783229     -1.48373301
H       1.54459095     -2.83664943      0.17162280
H       0.83841894     -2.01212058      1.38851633
H       1.91629571      0.26602526      0.13041835
H       1.29273274      2.67212094     -0.45736872
