15
b3lypvtz=-240220.26660639
O      -2.01792442      0.10831262     -1.30524951
C      -2.18440200     -0.73008309     -0.25664745
C      -1.32121637     -1.00029090      0.72491702
C       0.04336191     -0.41488977      0.91297219
O       0.48131135      0.23375463     -0.28362792
C       1.70771694      0.93060979     -0.13810035
O       2.08143377      1.45955727     -1.36494167
H      -1.11562359      0.46546743     -1.25726581
H      -3.15603494     -1.20722864     -0.28141302
H      -1.63895464     -1.70311601      1.48344352
H       0.76200449     -1.20066965      1.18443666
H       0.04308099      0.31223490      1.73939271
H       2.45949981      0.23668013      0.26611953
H       1.58678740      1.77605021      0.54600583
H       2.26905931      0.73361109     -1.97004173
