16
b3lypvtz=-204465.90047791
C       2.83091431     -1.03057341      0.20006223
C       1.71096610     -0.54524239     -0.32073858
C       1.32080418      0.90253277     -0.31480018
C      -0.00174347      1.18586220      0.41952982
N      -1.16093171      0.57943695     -0.20917911
C      -1.94108054     -0.38651585      0.34204583
O      -2.91915905     -0.87326722     -0.18274408
H       3.56508715     -0.38789223      0.67265846
H       3.05857004     -2.08786639      0.16889464
H       1.00765042     -1.22755928     -0.78812436
H       2.10817971      1.49884801      0.15258059
H       1.22379872      1.26373082     -1.34519737
H       0.05462743      0.80407113      1.44004321
H      -0.14728896      2.26730518      0.48992184
H      -1.45078419      0.90645963     -1.11952766
H      -1.58343314     -0.69202992      1.34230273
