11
b3lypvtz=-236274.20570324
C       1.63263197     -0.56133164      0.40281639
N       0.38437353     -0.79464801      0.32159318
C      -0.54249532      0.14928961     -0.12091772
C      -0.29431750      1.53642613     -0.56408307
O       0.79204931      2.06934436     -0.60617132
N      -1.79724759     -0.19000921     -0.16648676
O      -2.08598929     -1.44008170      0.22405997
H       2.27204765     -1.36457822      0.75999089
H       2.08465479      0.38942925      0.13601096
H      -1.21978319      2.05916408     -0.86285527
H      -1.22592436     -1.85300465      0.47594276
