12
b3lypvtz=-226226.38772481
C      -1.44327422     -0.39721129      0.03218200
C      -0.33122182     -0.40131519      1.07667829
O      -0.12733066     -0.93175083      2.12156567
C       0.43720621      0.63855967      0.20491311
N      -0.75478615      0.73367810     -0.65422410
C       1.68022700      0.07101935     -0.43526620
O       1.72284664     -0.28838643     -1.58444453
H      -2.44059132     -0.16424357      0.40913987
H      -1.48185064     -1.33521357     -0.53090714
H       0.70001389      1.55245137      0.74873963
H      -0.52100792      0.52669434     -1.61932719
H       2.55976897     -0.00428195      0.23095059
