13
b3lypvtz=-169491.02995624
C      -2.39917118      1.11780799      0.40278466
C      -1.31116831      0.64668601      0.21891783
C      -0.00961868      0.06560098     -0.00089924
C       0.05088038     -1.28839361     -0.71797776
C       0.32346927     -1.23275387      0.74375046
C       1.06756874      0.99531414     -0.23607701
C       1.97204099      1.75884525     -0.43220672
H      -3.35862971      1.54131311      0.56468089
H       0.88119691     -1.42860120     -1.39408351
H      -0.89491044     -1.68795714     -1.05274187
H      -0.43251577     -1.59411232      1.42505039
H       1.34357725     -1.33372262      1.08360665
H       2.76728056      2.43997327     -0.60480477
