17
b3lypvtz=-217686.30685842
C       2.40940590      1.03811341     -0.17561237
C       1.63918066     -0.03467198      0.00196237
C       0.27579154     -0.02572190      0.62193451
C      -0.83510637     -0.45400433     -0.34795598
C      -2.22195820     -0.41412570      0.28363004
O      -2.60021670      0.88457296      0.73890059
O       2.00386884     -1.30211747     -0.37311862
H       3.38801383      0.97129327     -0.63521817
H       2.07322863      2.01228454      0.14299881
H       0.28012340     -0.70969065      1.47706467
H       0.06261412      0.96998419      1.00597480
H      -0.64182641     -1.46683644     -0.70876723
H      -0.82040370      0.19766040     -1.22865875
H      -2.96317573     -0.80646696     -0.42223195
H      -2.25051190     -1.04862320      1.17149501
H      -2.67792956      1.46311942     -0.02608362
H       2.87890163     -1.27476953     -0.77552239
