20
b3lypvtz=-182665.95549176
C       2.87038412     -0.13281562     -0.08567009
C       1.51629693      0.53062453     -0.35005349
C       0.36334071     -0.43931818     -0.21582569
C      -0.28944422     -0.71339997      1.12070918
C      -1.06876690     -0.02821310      0.02706448
C      -1.44799946      1.43138082      0.18460728
N      -2.04546394     -0.87485674     -0.63401992
H       3.68935596      0.58056178     -0.19319006
H       2.91381835     -0.54528425      0.92411602
H       3.04935936     -0.95265118     -0.78446218
H       1.38829848      1.36783732      0.33970405
H       1.51657227      0.96233394     -1.35640631
H       0.44563137     -1.31115153     -0.85519523
H       0.02710182     -0.11140220      1.96353644
H      -0.55911220     -1.73194437      1.36090890
H      -0.69204485      2.00833258      0.71714851
H      -1.60147025      1.90153565     -0.79102712
H      -2.38326935      1.51891470      0.74431459
H      -2.92718738     -0.85608270     -0.13150739
H      -2.23415681     -0.53294846     -1.57075698
