13
b3lypvtz=-213774.32778321
C      -1.89308985     -1.34155091      0.24847212
N      -0.76990384     -0.69063367     -0.42893070
C      -0.35704028      0.57144418     -0.08524649
O      -1.32710421      1.50182443      0.07315671
C       0.93576281      0.95176708      0.07031944
C       1.97623909      0.00208282      0.06917981
N       2.80608627     -0.80469601      0.05468484
H      -2.16309081     -2.23528419     -0.31005960
H      -1.65538183     -1.62327757      1.27876588
H      -2.76426604     -0.68980302      0.26840374
H       0.00759210     -1.31140296     -0.60528356
H      -2.10097736      1.25272706     -0.44605314
H       1.17081594      1.99940475      0.17337693
