12
b3lypvtz=-252134.06525536
C       1.73051410      0.65597084     -0.12850380
C       0.65540952     -0.12755193     -0.09769643
N      -0.66810242      0.24821074      0.10642308
C      -1.76586606     -0.59072292      0.13293166
N      -2.98169038     -0.26810554      0.31737018
F       0.80466654     -1.46024387     -0.28062878
O       3.01168822      0.22066352     -0.33483496
H       1.65498485      1.72274266      0.01268347
H      -0.83141399      1.23252024      0.24805361
H      -1.51273773     -1.63351727     -0.02635616
H      -3.10342455      0.73635820      0.45620741
H       3.00597191     -0.73632469     -0.45286541
