16
b3lypvtz=-204454.26317039
C      -2.78615017     -0.76886810     -0.17623166
C      -1.83509366      0.05537020      0.23156069
O      -0.51824043     -0.32986297      0.27772429
C       0.47010346      0.61416895      0.06620125
N       0.32371210      1.76657746     -0.42672848
C       1.80564802      0.06969199      0.48399603
C       2.25598098     -1.12678437     -0.36441993
H      -2.55645669     -1.75693586     -0.54900049
H      -3.81989475     -0.46241081     -0.12567612
H      -2.03548232      1.05043539      0.61263781
H      -0.63418418      1.96540954     -0.70687001
H       1.74372952     -0.23002952      1.53323821
H       2.52088130      0.88554902      0.40610590
H       3.23416975     -1.47600056     -0.03298909
H       1.55403646     -1.95573190     -0.28247070
H       2.33618163     -0.84895144     -1.41622168
