11
b3lypvtz=-236267.30035681
C      -2.40491986     -0.41865254      0.08719768
C      -1.20389140     -0.42809211      0.65936125
C      -0.03030671      0.17008998     -0.01214452
O      -0.03755113      0.69891628     -1.09176676
N       1.16370870      0.02536528      0.83716133
N       2.15604230      0.51603841      0.31038128
O       3.24492839      0.35692230      1.13792605
H      -2.54530019      0.03046972     -0.88770241
H      -3.26679134     -0.85438532      0.57358855
H      -1.03301000     -0.86886834      1.63176882
H       3.95709127      0.77219633      0.63272546
