19
b3lypvtz=-218456.49398343
C       1.76081465      1.29480610     -0.44664414
C       1.18456695     -0.09883935     -0.21783972
C       2.12559460     -0.99316681      0.57316042
O      -0.04104399     -0.01431755      0.53520914
C      -1.20965284      0.17930255     -0.22335140
C      -2.31776851      0.55153937      0.74311726
O      -1.52899770     -0.96448827     -0.99699796
H       1.06131733      1.93160838     -0.98978507
H       2.68077340      1.23925994     -1.03168554
H       1.98666411      1.77214476      0.50846935
H       0.96471428     -0.57169534     -1.17900784
H       2.30825660     -0.57014698      1.56259156
H       3.08316648     -1.09427928      0.06001501
H       1.69450241     -1.98604247      0.70066775
H      -1.06291208      0.96673510     -0.96941071
H      -2.07616346      1.47805803      1.26314643
H      -3.25669944      0.67559037      0.20545611
H      -2.43670460     -0.23578821      1.49054140
H      -1.70266318     -1.69053336     -0.38594907
