16
b3lypvtz=-202047.97183658
C      -0.78844960     -0.52504603     -1.70088834
C      -1.43527290     -0.96592444     -0.38796393
N      -0.36847343     -0.66305039      0.56851722
C       0.38362183      0.41762523      0.07764356
C       1.32380479      1.09268356      0.75612000
N       1.74113875      0.75839230      2.08357566
N      -0.01076476      0.63201412     -1.25612026
H      -0.15923260     -1.32952781     -2.10257556
H      -1.52273336     -0.24608564     -2.45629812
H      -1.68904252     -2.02576777     -0.37986908
H      -2.34548634     -0.38438005     -0.19924113
H      -0.64358871     -0.57670069      1.53528511
H       1.85656902      1.89860132      0.26707195
H       1.21227861      1.22534236      2.81151185
H       1.71720766     -0.23838481      2.25578432
H       0.72842355      0.93020878     -1.87255325
