13
b3lypvtz=-216164.50183111
O      -1.48172814      0.87488210      1.38462863
C      -2.04271397      0.09110966      0.63431138
C      -1.45232393     -0.70317225     -0.42618906
C      -0.16182374     -0.78466380     -0.85488266
C       1.07248297     -0.16440833     -0.46707382
C       1.29192740      0.74148865      0.51256257
O       2.49378006      1.26566172      0.79952615
H      -3.13453781     -0.06324163      0.74093052
H      -2.16779838     -1.32564427     -0.95119962
H      -0.02488438     -1.47639533     -1.68097129
H       1.93702216     -0.47568585     -1.04875736
H       0.50254741      1.11668513      1.14745581
H       3.16805035      0.90328421      0.20955875
