14
b3lypvtz=-224614.3379308
C      -2.29901808     -0.92016738      0.02078448
C      -1.18511182      0.08915911     -0.00320492
N      -1.27608349      1.34960981     -0.02570978
O       0.00794056     -0.57053361     -0.00199101
C       1.26848193      0.05583108      0.00459272
N       1.55153298      1.27843326      0.04339455
N       2.20470762     -0.95169034     -0.08380427
H      -2.22014017     -1.54308504      0.91273487
H      -2.22358885     -1.57956980     -0.84466236
H      -3.26787554     -0.42629607      0.01297581
H      -2.24871630      1.63919344     -0.02563346
H       0.71449608      1.85132621      0.03032633
H       1.93538944     -1.84326203      0.29694795
H       3.13614166     -0.64891564      0.14782609
