15
b3lypvtz=-191231.77623828
C      -3.34786003      0.05290666     -0.35372955
C      -2.10263759     -0.50333957      0.32374210
N      -0.94226589      0.34625400      0.09399706
C       0.32610488     -0.12465384      0.03111157
C       1.45914773      0.61323969      0.09140912
C       2.73533491      0.02518248     -0.04915625
N       3.78889964     -0.43912894     -0.15789949
H      -4.20468293     -0.59315728     -0.16040885
H      -3.59318655      1.04630548      0.02811794
H      -3.20508972      0.12845111     -1.43175728
H      -1.86743046     -1.49102223     -0.07490039
H      -2.28766719     -0.62984500      1.39724189
H      -1.05991339      1.32668459      0.29933322
H       0.39965364     -1.19693161     -0.10764602
H       1.42384895      1.68528046      0.24123394
