11
b3lypvtz=-213027.3595504
C       0.42108544      0.77007869      0.90716823
C      -0.74138608      0.27179823      0.32225591
C      -0.57674717     -0.62080175     -0.73130876
N       0.62752124     -0.98537050     -1.16380038
C       1.67262920     -0.45187883     -0.53652738
N       1.62598389      0.40975502      0.47970231
O      -1.94641883      0.67683039      0.80305151
H       0.35881918      1.47037783      1.73288386
H      -1.43881591     -1.05057006     -1.23688802
H       2.65520088     -0.74556150     -0.88478662
H      -2.65787185      0.25534249      0.30824934
