18
b3lypvtz=-202805.94512973
C      -2.02224411      0.77781820      0.49585466
N      -1.08967903     -0.05819505     -0.25741579
C      -1.48425580     -1.45253728     -0.28138493
C       0.27426968      0.22404617     -0.11236660
N       0.60000429      1.57172841     -0.30192200
C       1.22084798     -0.68995411      0.18727062
N       2.60498540     -0.30049890      0.16678410
H      -1.67770448      1.80701418      0.50598162
H      -2.12240437      0.44050917      1.53850246
H      -3.00738779      0.73685526      0.02856872
H      -1.41572906     -1.93922195      0.70344685
H      -2.52110291     -1.51758907     -0.61375294
H      -0.85953347     -2.00421556     -0.98185399
H       0.15223018      1.96593638     -1.11891889
H       1.60709788      1.67091105     -0.34513558
H       0.94884665     -1.70150853      0.45783767
H       3.00158268     -0.26214815      1.09919436
H       3.17108027     -0.95024025     -0.36585934
