19
b3lypvtz=-192730.90838194
C      -2.35257967     -0.05640448     -0.52473948
C      -1.15255748      0.12879768      0.39220282
N      -0.31129536     -1.07767023      0.61810979
C       0.72292889     -0.59031129     -0.32820389
C       2.15720670     -0.80210967      0.11046638
C       0.07297601      0.83767231     -0.23870901
N       0.65101113      1.84820987      0.62712261
H      -2.84871500      0.89911779     -0.70961623
H      -2.05738983     -0.47742781     -1.48888697
H      -3.08618122     -0.72846456     -0.07303839
H      -1.47704938      0.58990430      1.32971627
H      -0.74636876     -1.96066328      0.37749029
H       0.59416350     -0.98901813     -1.34242401
H       2.85634755     -0.35510890     -0.60126940
H       2.38304514     -1.86880105      0.17231774
H       2.33803026     -0.36914707      1.09477112
H      -0.11723888      1.29541272     -1.20954820
H       1.52007428      2.20697242      0.24953986
H       0.85359211      1.46923938      1.54469870
