13
b3lypvtz=-213759.57389341184
C       1.94622446      0.23443925      0.28584635
N       0.91877378     -0.55842236      0.26034887
C      -0.41144575     -0.33550944     -0.00614262
C      -0.94259343      0.94458900     -0.33600990
N      -0.23658111      2.01860947     -0.41796973
C      -1.19239978     -1.53063654      0.08459389
O      -0.71994893     -2.63082286      0.36956153
H       1.79763157      1.27921063      0.06686066
H       2.90481287     -0.19754451      0.52835875
H       1.04758994     -1.55657866      0.46685343
H      -2.02320844      0.93139187     -0.51618819
H      -0.81814048      2.81463897     -0.66613151
H      -2.27071470     -1.41336482     -0.11998154
