13
b3lypvtz=-216164.66463217
O       1.53459022     -0.37842690     -1.80122283
C       1.69865902     -0.03305131     -0.65781746
C       0.56906819      0.14585514      0.32231638
C      -0.61826789      1.04777410     -0.16149888
C      -1.56760932     -0.05834320      0.29984871
O      -2.73470999     -0.09335802      0.55239096
C      -0.42311637     -1.06119996      0.44810049
H       2.71895575      0.17125032     -0.27622833
H       0.94948341      0.46129011      1.29206922
H      -0.62678666      1.14157438     -1.24934121
H      -0.73950738      2.02839630      0.29507034
H      -0.36219624     -1.71624610     -0.42337005
H      -0.39876274     -1.65541486      1.35978265
