15
b3lypvtz=-214530.45286016
C       0.71732953      1.67878353     -0.07309578
C       0.29724648      0.23571142     -0.00180798
C       1.32933644     -0.78729351      0.08161706
N       2.59800661     -0.64547317      0.02593794
C      -1.01214112     -0.11279432      0.00734066
N      -1.54859151     -1.38572043     -0.16117186
O      -1.97708750      0.83957901      0.14202501
H       1.40213164      1.84577540     -0.90974068
H       1.24070872      1.98805111      0.83584177
H      -0.13927488      2.33376619     -0.20464912
H       0.98615477     -1.81302491      0.24016719
H       2.85101758      0.33370787     -0.11549662
H      -0.87733923     -2.10975848     -0.36091525
H      -2.19069479     -1.66514151      0.56996212
H      -2.77963175      0.51560781     -0.28622847
