13
b3lypvtz=-216174.33856295
C      -1.93437336     -0.53024646      0.00135457
C      -0.46850038     -0.32442675     -0.03983819
C       0.32431115      0.76660703      0.13771951
C       1.68277588      0.34486848     -0.02481342
C       1.62166085     -0.98274946     -0.29184350
O       0.33498839     -1.40893050     -0.30614888
O      -0.14379845      2.02050243      0.41965202
H      -2.42313081      0.41727567      0.22284098
H      -2.31846939     -0.89751815     -0.95378023
H      -2.22015031     -1.25056187      0.77219494
H       2.57275325      0.94805421      0.04790562
H       2.37277264     -1.72705382     -0.48580294
H       0.59916054      2.62417921      0.50055954
