19
b3lypvtz=-171819.0519016
C      -2.77360950      0.48684301      0.17843961
C      -1.73126593     -0.59708359     -0.10577220
C      -0.33694598     -0.21555432      0.34181583
C       0.83009627     -0.89013013     -0.31636698
C       2.14303872     -0.49303072      0.36275913
C       1.82262553      1.00880318      0.06878948
C       0.51542930      0.58208915     -0.60342067
H      -3.76741529      0.17589003     -0.14829360
H      -2.52627004      1.41675762     -0.33676986
H      -2.82984737      0.70633291      1.24677619
H      -1.71651926     -0.81937620     -1.17718309
H      -2.02767650     -1.52551105      0.39210226
H      -0.25654686      0.00946232      1.40450018
H       0.68922344     -1.74930046     -0.95853856
H       3.02532954     -0.83501648     -0.17588991
H       2.24223894     -0.78090697      1.41176222
H       1.72046851      1.67022827      0.93194790
H       2.53717789      1.45045430     -0.62398079
H       0.09619661      1.02135113     -1.49894810
