13
b3lypvtz=-190460.95287515
C       0.60570724      1.71813229     -0.00005633
C       0.84209123      0.40403787     -0.00011199
C       2.23207989     -0.16835250     -0.00024512
C      -0.28168747     -0.56615744      0.00000220
N      -0.20305919     -1.83887664     -0.00006959
C      -1.62757722     -0.01114550      0.00010324
N      -2.68217890      0.44912471      0.00018831
H       1.41964643      2.43049390     -0.00009497
H      -0.39808946      2.11970060      0.00003241
H       2.40794502     -0.79114824     -0.88093125
H       2.40811589     -0.79115039      0.88040540
H       2.97257910      0.62852527     -0.00031708
H       0.76985343     -2.14359794     -0.00015223
