14
b3lypvtz=-203698.22484034
C      -0.18682294      1.06325685      0.95118458
C       0.20036194      0.24172991     -0.23803957
C      -0.88982713     -0.57475487     -0.87686126
O      -1.65773446     -1.19634193      0.14984860
C       1.44791285      0.26608387     -0.73016899
C       1.88279247     -0.49612314     -1.85023179
N       2.26093071     -1.10186362     -2.75722978
H      -0.55042066      0.41690877      1.75078123
H       0.64848872      1.65554728      1.32024395
H      -1.01178353      1.73534371      0.69949199
H      -1.51800761      0.10625321     -1.46931050
H      -0.46342621     -1.31321647     -1.55935713
H      -2.36262160     -1.70426989     -0.26115698
H       2.20015746      0.90154632     -0.27939436
