15
b3lypvtz=-214524.13628077
C       2.01859530      1.15945292     -0.38357005
C       1.43842203     -0.01496704     -0.08921216
N       2.12564970     -1.15812652      0.31497176
N       0.05141442     -0.23906014     -0.16030194
C      -0.72205321      0.54703887      0.45839247
O      -2.05423674      0.47530215      0.40788570
C      -2.61591925     -0.54900375     -0.42531278
H       1.42528887      2.00613362     -0.68853002
H       3.09307589      1.27328700     -0.36247492
H       3.09596312     -1.18850953      0.04424392
H       1.63613437     -2.01179031      0.09493131
H      -0.39791874      1.36563269      1.10026746
H      -2.27573868     -0.43404723     -1.45374488
H      -3.69242718     -0.42107960     -0.35953602
H      -2.32453291     -1.53526514     -0.06584484
