13
b3lypvtz=-237091.41853883
N       2.11724325      0.61185332     -0.14378772
C       1.14734196     -0.34081713      0.02212761
O       1.40517422     -1.52698641      0.15795916
C      -0.23735284      0.20598137      0.05420972
N      -0.40384866      1.61387424      0.06406436
C      -1.25409939     -0.65561830     -0.05315364
O      -2.54711436     -0.21300436     -0.05499149
H       1.85151617      1.50550769     -0.52397403
H       3.04964617      0.27456179     -0.31438725
H      -0.03940847      2.03890470      0.90856226
H      -1.37779672      1.86897101     -0.03342285
H      -1.06873529     -1.71415458     -0.16241684
H      -3.14281904     -0.95546232     -0.18185529
