15
b3lypvtz=-216925.60337195
C       1.64097136      1.23836325     -0.03772043
C       0.96114517     -0.10845778      0.00749723
O       1.60774230     -1.14102753      0.02703875
C      -0.52662202     -0.21307323     -0.00928246
O      -0.97399075     -1.52947628     -0.07932120
C      -1.38267796      0.74755822      0.79601897
C      -1.37717586      0.82959803     -0.70111693
H       1.10206262      2.01042379      0.50863069
H       1.71400586      1.56065073     -1.07952182
H       2.64885825      1.13752344      0.35732069
H      -0.16632579     -2.06827052     -0.04562048
H      -2.23342967      0.27947532      1.26981491
H      -0.91101404      1.53267346      1.36937500
H      -0.89555509      1.67257617     -1.17618974
H      -2.22903438      0.42737493     -1.23034818
