16
b3lypvtz=-181154.95113869
C       2.39355060     -0.00164516     -0.09319684
C       1.06655945      0.01475562      0.04653607
C       0.30561358     -1.24455973     -0.02084380
N      -0.95862276     -1.37913449      0.02052512
C      -1.79247872     -0.18133232      0.11021347
C      -1.12605870      1.11124508     -0.36064333
C       0.25228720      1.26008356      0.28859709
H       2.92882101     -0.93124661     -0.24372904
H       2.98457523      0.90484801     -0.05996126
H       0.89906601     -2.15634843     -0.10780098
H      -2.11321107     -0.08874849      1.15457524
H      -2.70106364     -0.37747079     -0.46254354
H      -1.76138783      1.96769035     -0.12667952
H      -1.01467345      1.08192937     -1.44824401
H       0.77962823      2.14211754     -0.07743047
H       0.12408786      1.39313249      1.36885380
