18
b3lypvtz=-205221.15292763
C       2.97823852     -0.03349140      0.17153883
C       1.67071946     -0.68928102     -0.26910205
C       0.40781506      0.02040709      0.24816191
N       0.23752892      1.41233929     -0.18391208
C      -0.86087068     -0.74197614     -0.14067303
C      -2.10985356     -0.09428942      0.40957896
O      -3.15600294     -0.01829701     -0.18061672
H       3.84011338     -0.59036007     -0.19785316
H       3.06668309      0.98656449     -0.20693449
H       3.05303939      0.00625959      1.26088794
H       1.62650110     -0.72882169     -1.36274398
H       1.65487996     -1.72756062      0.07618696
H       0.46258488      0.04655183      1.34285156
H       0.19090440      1.47241831     -1.19587526
H       1.00863025      1.99413307      0.11789784
H      -0.96261238     -0.82433590     -1.22559600
H      -0.81710861     -1.76217812      0.25729449
H      -2.01336527      0.29990171      1.44285427
