18
b3lypvtz=-181880.15987808
C       2.28798371      0.59672485     -0.00742033
C       1.26909783     -0.51598225      0.24068815
C       0.05278718     -0.40320227     -0.66419114
N      -1.03556959     -1.42535487     -0.50511974
C      -2.02584330     -0.36386003     -0.29746273
C      -1.70675709      0.53188772      0.86113483
C      -0.97067526      0.71797967     -0.44037150
H       1.84996922      1.57903346      0.18040849
H       2.64432767      0.58301291     -1.03969723
H       3.15617925      0.49104234      0.64435736
H       0.95597996     -0.50304912      1.28828289
H       1.73746022     -1.49079917      0.06985822
H       0.38458976     -0.41187274     -1.70657347
H      -0.91628935     -2.02815536      0.30402857
H      -3.01093741     -0.43080735     -0.73910877
H      -1.20821164      0.13506778      1.73842575
H      -2.44084193      1.29889146      1.07380463
H      -1.02344922      1.63934298     -1.00094398
