15
b3lypvtz=-191188.14085472
C       1.69745288      0.60770076     -0.23566938
C       0.38519519     -0.02744533      0.09025651
C      -0.41631616     -1.12368209     -0.55128829
N       0.29317486     -1.39254768      0.71018053
C      -1.74588053     -0.47479120     -0.14726735
C      -0.90939258      0.65636455      0.46633071
N      -1.25512717      1.78332521      0.90749098
H       2.20402676      0.95249547      0.66924440
H       1.56209340      1.46800118     -0.89370204
H       2.36028861     -0.09997350     -0.73756186
H      -0.19621646     -1.67401864     -1.45423793
H       1.16903309     -1.86136489      0.48303691
H      -2.34337275     -0.11107014     -0.98315742
H      -2.36423574     -1.05703937      0.53439313
H      -0.44072344      2.35404568      1.14195111
