14
b3lypvtz=-203664.82779468
N       1.73982001     -1.77816324     -0.14370702
C       0.87924937     -0.86105993     -0.04411072
C       0.85656774      0.57710424      0.51716433
C      -0.54353067      0.71871822     -0.09407828
O      -1.04593836      1.86490380     -0.67545507
C      -1.46330751     -0.29083887      0.45271492
C      -0.47857009     -0.74308555     -0.63011269
H       2.60507611     -1.52337985      0.33395349
H       0.94959864      0.71736210      1.59611829
H       1.60101106      1.19306925      0.00746291
H      -0.41812009      2.18611840     -1.33249134
H      -1.37205402     -0.65589562      1.46942018
H      -2.47898819     -0.20885651      0.08856524
H      -0.83071400     -1.19589642     -1.54544422
