17
b3lypvtz=-191974.86452981
C      -2.57104284     -0.43539554     -0.11864900
C      -1.26796299     -0.65351205     -0.32802461
N      -0.23045247      0.23488147     -0.09512807
C      -0.56302537      1.55806506      0.41577890
C       1.08778732     -0.24499463      0.00658126
C       1.39581087     -1.47621778      0.44240856
N       2.04672457      0.70631018     -0.36649951
H      -3.28363504     -1.19414901     -0.40363361
H      -2.96164108      0.47140338      0.31779870
H      -0.93278911     -1.58917273     -0.75476829
H      -1.23944135      2.06809809     -0.27249985
H       0.34648320      2.13825194      0.52540659
H      -1.05845905      1.48668352      1.39052875
H       2.40364644     -1.85460690      0.35443484
H       0.65743049     -2.10889014      0.90729087
H       2.99302489      0.36696714     -0.29245981
H       1.87241752      1.13610599     -1.26519672
