15
b3lypvtz=-191211.94431592
C      -1.76043270     -0.69810592      0.02140954
C      -0.65828696      0.35433954      0.22634692
C      -1.03908510      1.64242073     -0.36250941
N      -1.33998043      2.64540968     -0.83968588
C       0.67678366     -0.10919180     -0.33738162
C       1.96450262      0.29036431      0.26795086
N       1.40767750     -1.05218445      0.51173475
H      -2.70023700     -0.37367034      0.46582502
H      -1.93125212     -0.88037617     -1.03997641
H      -1.45153800     -1.62970760      0.49356485
H      -0.52144430      0.51451463      1.29901229
H       0.67092249     -0.28675028     -1.40806328
H       2.82362783      0.39067688     -0.38352871
H       1.97288055      0.94135469      1.13329527
H       1.88586197     -1.74909389     -0.04799415
