15
b3lypvtz=-214521.493807
N      -3.12642150      0.59384229     -0.06518480
C      -2.45774539     -0.45787992     -0.26957348
O      -1.13840424     -0.71065028     -0.12675465
C      -0.29303980      0.35977062      0.36543650
C       1.09764476     -0.14102961      0.50362950
C       2.10091226      0.30712530     -0.25782940
N       3.43870278     -0.02236497     -0.14067882
H      -2.56300014      1.37383991      0.26486592
H      -2.95374637     -1.35779600     -0.62577614
H      -0.33655554      1.20076233     -0.33271729
H      -0.70107701      0.69250532      1.32550990
H       1.27963396     -0.89466562      1.26258196
H       1.90249721      1.05369176     -1.02009169
H       3.98846532      0.05469811     -0.98006124
H       3.64901368     -0.85409723      0.38879773
