15
b3lypvtz=-191137.37575244
C      -0.86237496     -0.76671387      0.28643126
C      -0.59652107     -1.34169067     -1.22753401
C       0.85270386     -0.95028682     -1.07079376
N       0.90113535      0.31144123     -0.76999578
C       0.53724643     -0.02100738      0.64273296
C       1.58952238     -1.05959960      1.06921832
N       1.50208940     -1.89144760     -0.14079648
H      -1.15497391     -1.53744636      1.00162236
H      -1.66182438     -0.03066465      0.21785320
H      -0.79469628     -2.40573347     -1.31739912
H      -1.13987393     -0.75480881     -1.95981608
H       0.43474822      0.85440609      1.27729226
H       2.55806837     -0.58084080      1.23992105
H       1.30772792     -1.63827075      1.94903390
H       2.35832260     -2.29293653     -0.49687009
