12
b3lypvtz=-257145.02077986
N       1.89037118      1.27102092     -0.09825782
C       1.50997821     -0.04762680     -0.00007333
F       2.59602212     -0.84577205      0.02650685
C       0.29162036     -0.60401123      0.00723229
C      -0.94998114      0.13437339      0.02751129
C      -2.15360475     -0.42981633     -0.01090427
F      -3.27977858      0.31622157      0.02348750
H       1.15571287      1.94416484      0.04728566
H       2.73455391      1.49665083      0.40743159
H       0.26080951     -1.68434874     -0.01399669
H      -0.92828143      1.21789872      0.08056264
H      -2.36284427     -1.48898812     -0.07080570
