17
b3lypvtz=-191978.42189357
C      -3.39448297     -0.20907825     -0.21987813
N      -2.19680569      0.61519137     -0.22234652
C      -0.95849736     -0.01520071     -0.26541522
C       0.17552542      0.41456607      0.31527850
C       1.46756997     -0.21001021      0.14741518
C       2.60173246      0.22070599      0.72248875
N       3.84440918     -0.41741944      0.67478744
H      -3.37276123     -0.88087381     -1.07947574
H      -3.50960634     -0.82301164      0.68389344
H      -4.27386783      0.42669964     -0.32068188
H      -2.23546585      1.37807160      0.43789468
H      -0.94717365     -0.90758959     -0.88390443
H       0.13525353      1.30103970      0.94461779
H       1.50746878     -1.09735566     -0.48086628
H       2.59004421      1.10556692      1.34977957
H       4.63574188      0.20821211      0.67244991
H       3.93091551     -1.10951409     -0.05537435
