12
b3lypvtz=-226237.05123176
N       2.73088468     -0.33368043      0.54440541
C       1.64567630     -0.47849801     -0.08494238
C       0.43219336      0.40156713      0.15773083
O       0.46242828      1.26214733      1.00872008
C      -0.80886707      0.15272278     -0.67398071
C      -2.01616050     -0.13915927      0.21111456
O      -2.79682162     -1.02248462     -0.00961491
H       2.63144726      0.44173294      1.21072371
H       1.56136441     -1.25925686     -0.84052417
H      -1.03144729      1.08621877     -1.20200975
H      -0.69041399     -0.64726226     -1.40190275
H      -2.12018382      0.53585250      1.08028009
