15
b3lypvtz=-214488.17056273
C      -2.74938250     -0.08175575     -0.04350064
C      -1.35281837     -0.39483999      0.26344697
O      -1.91880661     -0.73294267     -1.01080966
C      -0.27076007      0.66057814      0.26173620
C       1.04247982      0.12836267     -0.22769500
N       2.06672110      0.12228647      0.52445109
N       3.22186493     -0.45541587      0.05560991
H      -3.54466747     -0.69334053      0.37016543
H      -3.02447118      0.94086997     -0.28352046
H      -1.15460324     -1.25886762      0.89303324
H      -0.13262786      1.04702481      1.27346010
H      -0.59983238      1.48646056     -0.37663933
H       1.07622093     -0.27066875     -1.24763937
H       3.31783401     -0.45823466     -0.95714400
H       4.02284889     -0.03951680      0.50504550
