20
b3lypvtz=-182673.4111891
C      -2.88407201     -0.61959728      0.57475081
C      -2.03895258      0.25189643     -0.36530301
C      -0.65448416     -0.29168524     -0.56612802
C       0.51826231      0.28219058     -0.28346580
C       0.69781758      1.64996576      0.31681480
C       1.80413375     -0.45744516     -0.57742064
N       2.55639891     -0.72324997      0.65934244
H      -3.90033300     -0.23155418      0.66347238
H      -2.44582446     -0.65439941      1.57350627
H      -2.95000975     -1.64561505      0.20661452
H      -2.00855747      1.27368648      0.01310731
H      -2.54141813      0.30260249     -1.33788776
H      -0.62462539     -1.29025755     -0.99859850
H       1.40163227      1.59791518      1.14828279
H      -0.23218228      2.08651136      0.67376369
H       1.12902418      2.33604547     -0.41975249
H       1.57408455     -1.36148091     -1.15504438
H       2.44209006      0.17060638     -1.20822150
H       3.47458313     -1.09293989      0.44443401
H       2.07577447     -1.42434747      1.21138208
