19
b3lypvtz=-192742.05325767
C      -1.39962894      0.65804592      1.18589868
C      -1.06330257      0.07553649      0.02829280
N      -1.91521555     -0.80688815     -0.64310778
C       0.24636495      0.31973041     -0.70262216
C       0.88906188      1.67710382     -0.41326652
C       1.23465525     -0.84118399     -0.44338949
N       1.68022281     -0.86992013      0.94737463
H      -2.33813685      0.43295375      1.67704541
H      -0.76551649      1.39634257      1.64787627
H      -1.45932593     -1.49344239     -1.22333405
H      -2.64449820     -1.21582981     -0.07939210
H       0.00892074      0.28317585     -1.77154057
H       1.76049222      1.81732602     -1.05565070
H       1.23214509      1.74296896      0.61707839
H       0.18915448      2.48999472     -0.60514372
H       0.77069283     -1.78319196     -0.77556329
H       2.11217186     -0.68778390     -1.07627902
H       0.89286413     -1.02774105      1.56595401
H       2.34490530     -1.61778613      1.09831021
