17
b3lypvtz=-217684.76083823
C       2.03236927     -0.75525353     -0.06014324
O       1.22974423      0.33029803     -0.49791015
C      -0.10500179      0.38818386      0.01770614
C      -0.69309707      1.67403190     -0.57257899
C      -0.17006988      0.39202593      1.54185155
C      -0.89542733     -0.77732388     -0.58503010
O      -1.75980051     -1.39817339     -0.02575724
H       1.53055126     -1.72188353     -0.18212827
H       2.33351446     -0.64900735      0.98564049
H       2.92469539     -0.74807281     -0.68315981
H      -1.72776100      1.80761994     -0.25832237
H      -0.65195190      1.64983666     -1.66192119
H      -0.10299895      2.52416762     -0.23006058
H      -1.20273652      0.50226125      1.86799100
H       0.41628138      1.22290706      1.93495490
H       0.20334970     -0.53805140      1.96819466
H      -0.61002775     -0.99479436     -1.63659781
