18
b3lypvtz=-181909.32764794
C       2.76292209     -0.87512878      0.10264570
C       1.68231941     -0.08347674      0.01858973
C       1.83731140      1.41618514     -0.02604997
C       0.34406745     -0.64972048     -0.02462322
C      -0.79987552      0.05435898     -0.11916345
N      -2.06739491     -0.47221362     -0.24723403
C      -3.22079246      0.28662182      0.20186344
H       2.67136065     -1.95355221      0.13536421
H       3.76343448     -0.46640469      0.14009855
H       2.88734408      1.69928948      0.02298833
H       1.41657672      1.83222681     -0.94519628
H       1.31876964      1.89377105      0.80958192
H       0.28351018     -1.73419929      0.01168459
H      -0.77992455      1.13775705     -0.14855483
H      -2.13000675     -1.46624212     -0.08812015
H      -3.18003854      1.29198418     -0.21948258
H      -3.28962319      0.37919018      1.29350401
H      -4.13224119     -0.18671576     -0.16185496
