17
b3lypvtz=-191970.87424099
C       2.15787346     -0.75148337     -0.17336599
C       0.73493702     -0.70039727     -0.64045782
C      -0.27095051      0.04217429     -0.15896641
C      -1.69881314     -0.11534049     -0.64758830
N      -2.62960082     -0.70622314      0.31776353
N      -0.16747935      0.92186542      0.93493599
C       0.60625943      1.91982116      0.89961405
H       2.84489856     -0.38910358     -0.94362927
H       2.32497512     -0.15871292      0.72462806
H       2.45141092     -1.78223171      0.04311998
H       0.47504431     -1.39888165     -1.42947841
H      -2.09404682      0.86484753     -0.92845950
H      -1.69473121     -0.72723382     -1.55063320
H      -2.29287430     -1.62223613      0.59466893
H      -2.63609139     -0.14423045      1.16153323
H       1.21939759      2.17351812      0.02970287
H       0.66979114      2.57384803      1.76661225
