14
b3lypvtz=-226994.0367999
C      -2.57902300     -0.94596719      0.07711175
N      -1.25718488     -0.36184519      0.19072052
C      -1.08271891      0.81244714     -0.21855497
O       0.10226803      1.45669857     -0.15936623
C       1.17197605      0.73982783      0.46090571
C       1.68277743     -0.40599564     -0.39388259
O       2.51199880     -1.18326396     -0.00636034
H      -2.93248065     -1.24026370      1.06672728
H      -2.52463290     -1.85376759     -0.52615504
H      -3.32036468     -0.27256276     -0.37157740
H      -1.83981103      1.45904407     -0.66794910
H       0.87788378      0.35418418      1.43714266
H       1.97523687      1.46682865      0.58398905
H       1.26743609     -0.44887740     -1.42034630
