15
b3lypvtz=-191220.26688622
N      -2.68849887      0.29768032      0.03678411
C      -1.58703262     -0.56993766     -0.02744095
C      -0.29690702     -0.21521635      0.05483715
C       0.29617480      1.11633895      0.10194029
C       1.63009403      0.99797704     -0.02314656
N       2.04107382     -0.32316120     -0.21214259
C       0.87691201     -1.18631017      0.08883914
H      -3.47118546     -0.00100591     -0.52636673
H      -2.46563268      1.26194280     -0.16360720
H      -1.85864914     -1.61780991     -0.07698474
H      -0.23486097      2.05234833      0.16385483
H       2.36580559      1.78805251     -0.04849414
H       2.90674442     -0.58702907      0.23308288
H       0.79045023     -1.99402491     -0.63946772
H       0.98890685     -1.63909778      1.08289022
