14
b3lypvtz=-255308.76496327
C       0.18958724     -0.46573917     -0.25433207
C       1.65439810     -0.15144547     -0.01881014
O       2.40764625     -1.16235208     -0.68364655
C      -0.74337424      0.52501434      0.38828173
O      -0.37447959      1.48804995      1.02144106
C      -2.24234725      0.30073750      0.22848118
F      -2.53897043     -0.83508414     -0.51143308
H      -0.02732051     -0.50490397     -1.32654126
H      -0.05367562     -1.46746846      0.11297209
H       1.86452100     -0.13899175      1.05517447
H       1.88936920      0.84347878     -0.40938666
H       3.34296828     -0.98609054     -0.55000035
H      -2.67710716      1.16878460     -0.27115046
H      -2.69121527      0.20226097      1.21895003
