10
b3lypvtz=-246330.50799254
C      -1.67392732     -0.02563279      0.02960083
O      -0.61805961     -0.81100037     -0.55606667
C       0.58310721     -0.27215267     -0.52643605
N       0.92390296      0.88123512     -0.03011032
O       2.27135902      0.94119142     -0.26263396
N       2.66613055     -0.22577026     -0.90813352
N       1.66014960     -0.95056280     -1.06607816
H      -2.57430572     -0.61947783     -0.08675267
H      -1.77070781      0.92543574     -0.49342141
H      -1.46774889      0.15673444      1.08393192
