16
b3lypvtz=-181138.27433396
C      -0.40496351     -0.52128114      1.17307694
C      -1.02990334      0.18070924     -0.06300575
C      -0.34605915     -0.91633352     -0.92330830
C       0.73280556     -0.94526171      0.19870721
C       1.61499955      0.26730947     -0.00489210
N       1.15202804      1.42551782     -0.23618700
C      -0.31416641      1.51659809     -0.29468856
H      -0.99714970     -1.37671522      1.49593491
H      -0.13374534      0.08960373      2.03438908
H      -2.11334493      0.28914931     -0.11386129
H      -0.02218256     -0.65783213     -1.93172647
H      -0.92871269     -1.83656336     -0.94454488
H       1.29588582     -1.85700932      0.38629844
H       2.69761241      0.15015792      0.04785683
H      -0.62579948      2.25796786      0.44721214
H      -0.57730426      1.93398295     -1.27126121
