12
b3lypvtz=-223851.31082694
C      -2.35551757     -0.55303127     -0.00001001
N      -0.99922016     -0.05487805     -0.00000127
C      -0.54513663      1.20731125      0.00001757
N       0.77596569      1.23616137     -0.00002121
C       1.08576631     -0.07829743      0.00000827
O       2.36263360     -0.48924480      0.00000303
N       0.06059057     -0.91379915      0.00000288
H      -3.03778659      0.29441396     -0.00003439
H      -2.53293174     -1.16031554     -0.88704067
H      -2.53295441     -1.16028361      0.88703806
H      -1.19727926      2.06577162      0.00000938
H       2.36118420     -1.45400035      0.00001536
