9
b3lypvtz=-235519.78160995
N      -0.16029418      2.32181303      1.19396563
C      -0.13719857      1.28136586      0.70228563
C      -0.11918072     -0.01614235      0.09844510
C      -1.11059039     -1.05256945      0.50812098
O      -1.95621273     -0.86943875      1.34163436
N       0.71442443     -0.38713699     -0.80872014
O       1.60524805      0.57559430     -1.16326211
H      -0.98678353     -2.00556774     -0.03401639
H       2.15048764      0.15218209     -1.83865305
