16
b3lypvtz=-227765.10700016
C      -1.69940687      1.20415316     -0.14000526
C      -0.78322167      0.00567432      0.02094728
C      -1.05024314     -1.09891672     -0.99525460
O      -0.92664195     -0.45708120      1.34160842
O       0.55466879      0.54668218     -0.19687072
C       1.63487926     -0.19159093      0.14731565
N       2.82930992      0.13485139     -0.08248763
H      -1.54819643      1.66988681     -1.11212935
H      -1.47694471      1.93126729      0.63900454
H      -2.73816777      0.89146240     -0.04523806
H      -2.07080842     -1.46615874     -0.88877579
H      -0.36208892     -1.93517039     -0.85259253
H      -0.91472242     -0.72366085     -2.00832637
H      -0.72657400     -1.39698241      1.38597471
H       1.42301466     -1.11723094      0.67747398
H       2.87263167      1.02939362     -0.57288727
