16
b3lypvtz=-204412.37521873
C      -2.23917541     -0.60569518      0.39078692
N      -0.92918841     -0.05838659      0.73204046
C      -0.32775195      0.74268253     -0.34812031
C       0.16685436     -0.63452967     -0.06165303
C       1.46789827     -0.07238465      0.53869902
C       0.95288565      1.36037906      0.21328489
O       2.64018502     -0.34320296     -0.20952090
H      -2.35058419     -0.85888117     -0.67380122
H      -2.41290637     -1.50908154      0.97682083
H      -3.00796769      0.12266946      0.65183368
H      -0.94286059      1.10102832     -1.16189239
H       0.03320878     -1.55700660     -0.61103959
H       1.60370731     -0.29862782      1.59963770
H       1.58478444      1.79924625     -0.55691394
H       0.82961292      2.05025157      1.04717065
H       2.93129785     -1.23846099     -0.01002741
