15
b3lypvtz=-170279.59036412
C       3.46037689     -0.89592295     -0.00000192
C       2.23947782     -0.10197090      0.00006246
C       1.22845158      0.54489400      0.00011913
C      -0.00001088      1.34433419      0.00017398
C      -1.22853201      0.54500095     -0.00000399
C      -2.23957464     -0.10183133     -0.00012560
C      -3.46043690     -0.89583681     -0.00027259
H       4.07307823     -0.67774904     -0.87702400
H       4.06328376     -0.69296071      0.88740222
H       3.23176311     -1.96358867     -0.01047564
H      -0.00003252      2.00569824      0.87338645
H       0.00005954      2.00595906     -0.87284074
H      -4.06613982     -0.68873713      0.88426587
H      -3.23165046     -1.96351860     -0.00497931
H      -4.07040569     -0.68186130     -0.88023533
