16
b3lypvtz=-227773.71678155
C       2.60475984     -0.71031184      0.64941227
C       2.17779475      0.25909683     -0.44989058
C       0.75499371      0.78827600     -0.27031071
N      -0.21833858     -0.28676943     -0.37872738
C      -1.41874764     -0.08413743     -0.04468860
O      -2.35969065     -1.03822770     -0.13465484
O      -1.99392649      1.03657989      0.43801515
H       3.61503778     -1.08345065      0.47534127
H       2.59434402     -0.22498756      1.62873758
H       1.93006748     -1.56526696      0.69257006
H       2.23564709     -0.23397086     -1.42313240
H       2.86199962      1.11144311     -0.48419271
H       0.69636795      1.29214940      0.70940001
H       0.56398974      1.55226940     -1.03553806
H      -1.90991711     -1.81889241     -0.48286981
H      -1.32049152      1.72236822      0.51112274
