16
b3lypvtz=-204435.7862857
C       2.70637874     -0.36840498      0.00762569
O       1.62686396      0.47752828     -0.33798634
C       0.45598966      0.22246742      0.39248097
C      -0.71347115      1.15913050      0.01564549
C      -1.60575509     -0.06590659     -0.06813517
N      -2.86037606     -0.16834455     -0.06070588
C      -0.40810007     -1.01358818     -0.02331367
H       2.48101183     -1.42134667     -0.19812654
H       3.55876061     -0.06642561     -0.59760145
H       2.96806533     -0.26882910      1.06813296
H       0.66585466      0.22358720      1.46826359
H      -0.54076523      1.60497438     -0.96614117
H      -1.00149197      1.93813594      0.71893701
H      -3.14890343     -1.14822380     -0.07979842
H      -0.13166957     -1.36357256     -1.02070282
H      -0.47114123     -1.86291170      0.65666174
