16
b3lypvtz=-204437.86964853
C      -2.74952230     -0.03678841      0.01512028
C      -1.49446286      0.08582672     -0.39107260
O      -0.52291787      0.59373247      0.43487325
C       0.78485393      0.57182899     -0.00558541
C       1.51205626      1.68784969      0.05570427
N       1.20544746     -0.66234600     -0.49202296
C       1.05013979     -1.84640589      0.35721847
H      -3.05197655      0.24244419      1.01453421
H      -3.49632948     -0.41246545     -0.66703329
H      -1.15477807     -0.18918810     -1.38120812
H       2.57243953      1.66883193     -0.14582750
H       1.04654408      2.62727722      0.30676272
H       2.12383936     -0.59542095     -0.90426183
H       1.63445440     -1.78806807      1.28278459
H       0.00318537     -1.97882409      0.62085831
H       1.36806094     -2.72263226     -0.20580238
