22
b3lypvtz=-183438.77639325
C       3.05846764     -0.07686807     -0.24719964
C       1.70464520     -0.19397045      0.45372806
C       0.59631626      0.58330111     -0.26158199
C      -0.76893579      0.59774724      0.44704167
C      -1.74825142      1.52493635     -0.27950271
C      -1.36873221     -0.80682988      0.63350795
N      -1.58072214     -1.49651394     -0.64611461
H       3.83179908     -0.63941529      0.27871205
H       3.00799411     -0.45868701     -1.26955062
H       3.38446881      0.96417154     -0.30229573
H       1.43455689     -1.25094323      0.53314293
H       1.79499185      0.17069445      1.48199111
H       0.92504379      1.62012234     -0.38564777
H       0.47067251      0.19283376     -1.27727573
H      -0.60921226      0.99506827      1.45677947
H      -1.98805889      1.13166753     -1.26749984
H      -2.68381273      1.62156242      0.27585198
H      -1.32729621      2.52517929     -0.39928072
H      -2.34521869     -0.69869215      1.11118397
H      -0.74425153     -1.37829166      1.33269585
H      -0.70762735     -1.85922105     -1.00925985
H      -2.19202292     -2.29335259     -0.52062183
