15
b3lypvtz=-240222.7859628
C       2.90767587     -0.25556760      0.19057831
O       1.60196893     -0.32376619     -0.34844082
C       0.70297452      0.57942319      0.25857114
C      -0.66394383      0.43033923     -0.41969227
O      -1.53432577      1.42677408      0.04736819
C      -1.24474076     -0.94664744     -0.18534702
O      -2.33120231     -1.09424411      0.32185588
H       2.91444680     -0.50687395      1.25781591
H       3.33898370      0.74447443      0.06441141
H       3.51858768     -0.97684726     -0.34838598
H       0.60691029      0.38433551      1.33517550
H       1.03456457      1.61735583      0.13599185
H      -0.50368541      0.52555188     -1.50416294
H      -2.31678068      0.96461187      0.38728534
H      -0.62592358     -1.80255945     -0.49917251
