11
b3lypvtz=-262023.46876203
O       3.07105513      0.57734619      0.54837051
C       2.20546811      0.14034453     -0.15118829
C       0.72941351      0.15149502      0.28323635
O       0.32750186      0.61935828      1.31651531
O      -0.02605978     -0.43146179     -0.65450767
C      -1.45278137     -0.51012553     -0.33582455
O      -2.05017639      0.72895512     -0.28667885
H       2.39201102     -0.30135649     -1.14612881
H      -1.87659331     -1.06638214     -1.16526695
H      -1.53415253     -1.06230095      0.60204726
H      -1.78568626      1.15382776      0.53932569
