13
b3lypvtz=-237031.77306052
N      -2.62124976      0.67598713      0.80842738
C      -2.01375616     -0.31919755      0.10170709
N      -0.75855755     -0.49109755     -0.08485452
O      -0.04472692      0.51458810      0.62681821
C       1.32039019      0.36218777      0.52255203
C       1.97983767     -0.59365404     -0.12366548
O       3.34968816     -0.68730565     -0.19308218
H      -2.03680757      1.21816599      1.42235016
H      -3.56941125      0.53121938      1.10516687
H      -2.65755813     -1.03093713     -0.39961625
H       1.81758939      1.16074129      1.05930482
H       1.48470781     -1.38648100     -0.65800202
H       3.74985413      0.04598326      0.28659389
