16
b3lypvtz=-204466.28007721
C       3.08504402     -0.52380514      0.13316350
C       1.86373471      0.39580576      0.21453139
C       0.56968972     -0.34859908      0.32168701
C      -0.62887564      0.10348352     -0.09663170
N      -0.88203081      1.31131522     -0.72248437
C      -1.80181369     -0.77187237      0.07197533
O      -2.92939589     -0.44361918     -0.22981906
H       3.15382954     -1.16254708      1.01586207
H       3.02959528     -1.17118628     -0.74321162
H       4.00762166      0.05381406      0.06716663
H       1.97933833      1.06419886      1.07826852
H       1.83511221      1.04848482     -0.66388792
H       0.58953769     -1.33241656      0.77645795
H      -0.31635115      2.09720945     -0.45065058
H      -1.86846664      1.52040239     -0.78368699
H      -1.58350934     -1.76729841      0.49905883
