14
b3lypvtz=-203620.21190246
C      -0.20831110      1.15819554      0.58864058
C      -0.18138629     -0.38393435      0.61048242
C      -1.21462644     -0.56809459     -0.56676977
N      -0.48787919      0.24830080     -1.61796566
C       0.24988662      0.95738062     -0.85455939
O       1.60579546      0.65263330     -0.77138325
C       1.31277275     -0.56852480      0.07242431
H      -1.20137869      1.58366117      0.70143344
H       0.52275581      1.65704591      1.21754106
H      -0.36948990     -0.91572635      1.54469008
H      -1.27810571     -1.57659401     -0.97421643
H      -2.22001619     -0.24272075     -0.27933942
H       1.43548483     -1.44686315     -0.55743661
H       2.03449803     -0.55475933      0.88645864
