10
b3lypvtz=-223074.8126007
O       2.49061107     -0.53255316     -0.67661986
C       1.84280237      0.30177909     -0.08642134
C       0.39083514      0.23549993      0.08360839
C      -0.50286760     -0.71861716     -0.35474683
N      -1.68879560     -0.26968858      0.08338341
H      -2.60281643     -0.67840013     -0.02766355
N      -1.56232565      0.89966891      0.76033450
N      -0.30857877      1.19905873      0.75732439
H       2.31128502      1.18987711      0.37451772
H      -0.37024954     -1.62662472     -0.91381681
