15
b3lypvtz=-191193.68138059
C       3.05214273      0.44656690     -0.02942215
C       1.65738169      0.08925892     -0.24353725
C       0.51071293     -0.22240265     -0.41998155
C      -0.90285883     -0.54556291     -0.62764066
C      -1.68075923      0.76711296     -0.82092782
N      -2.67370211      1.17395700     -0.15825060
N      -1.39125120     -1.44112775      0.41460110
H       3.16896464      1.52499525      0.09338453
H       3.67128267      0.13443535     -0.87260178
H       3.44336880     -0.03680384      0.86778617
H      -0.98666426     -1.08416485     -1.58079395
H      -1.30924716      1.39217051     -1.63555936
H      -2.91485123      0.50250152      0.57727559
H      -2.36937808     -1.66608834      0.27834194
H      -1.27514134     -1.03484808      1.33481649
