15
b3lypvtz=-216911.12094902
C      -2.15775840      0.22037015     -0.35995316
C      -0.71196974      0.07432719      0.00968321
C       0.19250355      1.28444905      0.12286438
O       1.52928009      0.78761990      0.14525605
C       1.56847287     -0.51655607     -0.43594565
C       0.16408103     -1.04871393     -0.32889745
O      -0.38043049     -0.92515702      0.99318608
H      -2.69068002      0.80221116      0.39510104
H      -2.26584744      0.73299723     -1.31754495
H      -2.63265612     -0.75706784     -0.43001331
H       0.03134683      1.85377427      1.04033011
H       0.02953410      1.94753946     -0.73767765
H       2.30127871     -1.10611685      0.11743902
H       1.87067965     -0.47681105     -1.49162128
H      -0.15581163     -1.90899065     -0.90563944
