12
b3lypvtz=-223810.27417973505
C      -1.41749256      0.14498267     -0.65159230
C      -0.19519648     -0.00023142     -0.11104504
C       0.78007779     -0.94969707     -0.63019686
N       1.95772323     -1.07028541     -0.10559493
N       2.98936244     -1.16606898      0.37033678
N       0.10621413      0.83449605      1.01916107
O      -2.33715258      1.01918370     -0.18170093
H      -1.76169986     -0.42493720     -1.50292850
H       0.57872173     -1.58861883     -1.47688027
H       0.89556211      1.44644708      0.84638344
H       0.31169959      0.29413059      1.85198437
H      -1.90781953      1.46059885      0.57207316
