15
b3lypvtz=-214506.05633348
C      -2.30413775     -0.02247294      0.21572905
C      -1.04017629     -0.57325731     -0.34290752
N      -2.00217995      0.13415183     -1.21009729
C       0.25379146      0.05158774     -0.01499777
C       1.40971380     -0.61379786      0.10852905
N       2.58273264      0.14949207      0.43708847
O       0.20545979      1.40075387      0.14742870
H      -3.11708295     -0.70108281      0.44177709
H      -2.22692852      0.84527713      0.85765795
H      -0.97742275     -1.63786104     -0.52938715
H      -1.65768443      1.07507825     -1.37597995
H       1.45209571     -1.68662510     -0.03603461
H       3.30699871      0.05732844     -0.26582175
H       2.98818330     -0.13329486      1.32208912
H       1.12663723      1.65472261      0.34344612
