11
b3lypvtz=-189705.04659192
C      -1.26398828      1.59235319     -0.45301874
C      -0.65502120      0.52935244      0.07030266
C      -1.27659268     -0.76013184      0.03560973
N      -1.76073805     -1.80587494      0.03580748
C       0.70170181      0.60856480      0.75149360
C       1.75499478     -0.08918123      0.01406960
N       2.58710706     -0.62680576     -0.56913995
H      -0.79964795      2.56863658     -0.42590423
H      -2.23516993      1.51179548     -0.91912769
H       0.98846240      1.65473164      0.86167574
H       0.64241403      0.17788263      1.75399080
