13
b3lypvtz=-213776.9056235
C      -1.32240462      1.76514082     -0.28928749
C      -1.52558967      0.59463782      0.30537919
C      -0.78632801     -0.66608208      0.02370875
O      -1.38386975     -1.71973179     -0.07417738
N       0.59090960     -0.63375565     -0.16672746
C       1.51600956      0.33725895      0.20888432
N       2.77397366      0.28422687      0.07101475
H      -0.51853293      1.92715996     -0.99504075
H      -1.98456443      2.60134399     -0.10903218
H      -2.37503183      0.44584382      0.95989261
H       0.95904828     -1.53189779     -0.45439055
H       1.06966109      1.20818033      0.67582730
H       3.08004605     -0.57808227     -0.38310411
