16
b3lypvtz=-204420.09486538
C       2.09877092     -0.00000110     -0.06003465
C       1.07438604      0.00000118      1.08518496
C       0.02099633      0.00000002     -0.03572407
C      -1.09931019     -1.05495535     -0.10856756
N      -2.06915291     -0.00000068      0.28127970
C      -1.09931112      1.05495420     -0.10856929
O       1.03961247     -0.00000041     -1.05006507
H       2.72517079      0.89047955     -0.14230963
H       2.72516808     -0.89048382     -0.14230809
H       1.07380795      0.88751488      1.71457129
H       1.07380700     -0.88751011      1.71457466
H      -1.20515797     -1.41962109     -1.13606530
H      -1.04490832     -1.90469549      0.57545198
H      -2.93512385     -0.00000149     -0.24198019
H      -1.20515923      1.41961820     -1.13606761
H      -1.04490998      1.90469550      0.57544888
