18
b3lypvtz=-181902.93783192
C      -1.57721960     -1.28638437      0.15221425
C      -0.60501703     -0.12519426      0.00838434
C       0.56265180     -0.05925717      1.04855334
C       1.49237430     -0.04022694     -0.15137927
C       2.78195916      0.22385306     -0.34012603
N       0.44441808     -0.36612030     -1.02495411
C      -1.33067787      1.20503830     -0.17000230
H      -2.22373233     -1.36143970     -0.72539276
H      -2.21594223     -1.15228275      1.02816786
H      -1.03767045     -2.22756504      0.25507997
H       0.58544393      0.82594090      1.68146774
H       0.65122898     -0.95138242      1.66818800
H       3.22599209      0.21783578     -1.32661573
H       3.42259693      0.44460104      0.50078966
H       0.38208697      0.02596338     -1.95504181
H      -0.62138731      2.02951858     -0.25837207
H      -1.95053959      1.18890689     -1.07003535
H      -1.98656586      1.40819500      0.67907427
