14
b3lypvtz=-226995.91700026
C       2.72194045     -0.72440230     -0.24908609
C       1.47088239     -0.45645749      0.12196998
N       0.49818142     -0.09226430     -0.80569340
C      -0.67780380      0.24778830     -0.47346976
O      -1.56060848      0.57736575     -1.44903355
C      -1.30826337      0.42100042      0.89175479
O      -2.67570810      0.06663143      0.92751473
H       3.46571915     -1.01016830      0.48028448
H       3.01826323     -0.65837050     -1.28700246
H       1.20039945     -0.52852876      1.17354770
H      -1.09589132      0.46499011     -2.29133502
H      -0.80221417     -0.20789739      1.62000051
H      -1.15504529      1.46638284      1.19575855
H      -3.09985155      0.43393019      0.14478955
