15
b3lypvtz=-240206.24107311
C       1.23998143      0.79234447     -0.65112267
C       1.75126377     -0.49488454     -0.04627641
C       0.31986172     -0.39449775     -0.46321843
O      -0.58175137     -0.37812764      0.61580927
C      -1.75604468      0.37588909      0.39657901
O      -2.60656536     -0.19909749     -0.55843374
O       2.05439914     -0.54953231      1.31585973
H       1.12079895      1.61604943      0.04003644
H       1.53360539      1.06524319     -1.65573051
H       2.41709158     -1.11177947     -0.63586921
H      -0.03225812     -0.93395562     -1.33324420
H      -2.23114993      0.44877952      1.37725521
H      -1.50934710      1.36847593      0.01521886
H      -2.93516319     -1.03521370     -0.21011223
H       1.21527775     -0.56969314      1.79324885
