12
b3lypvtz=-226239.39988676
O      -1.75773797      0.86526807      0.10266497
C      -0.72768262      0.09542021     -0.47131412
C      -0.31617270     -1.11376298      0.37232017
N       1.16135529     -1.17040592      0.36227111
C       1.63839663     -0.11319814     -0.16184220
C       0.59032473      0.86166376     -0.58993816
O       0.70947191      2.02314344     -0.89189444
H      -1.65083879      1.77290233     -0.21198297
H      -0.99807175     -0.23665472     -1.48478251
H      -0.70411226     -2.06633726      0.01477989
H      -0.64982395     -0.98769318      1.40386188
H       2.70499147      0.06965440     -0.23824362
