17
b3lypvtz=-191955.08699997
C       0.73644721      0.75707210      1.61271734
C       0.52881872     -0.01493446      0.54946563
C       1.60741680     -0.28957823     -0.47908769
N       1.45418555      0.44740563     -1.74259289
C      -0.78909125     -0.68509859      0.31865836
C      -2.08889229      0.01954449      0.36121964
N      -1.51011652     -0.37735478     -0.93538102
H      -0.05015191      0.97387726      2.32491357
H       1.70663965      1.19809716      1.80782756
H       2.58502987     -0.04864802     -0.05805352
H       1.62197237     -1.35738309     -0.71752410
H       0.51140695      0.30520683     -2.09059301
H       1.52723444      1.44138608     -1.55318780
H      -0.80408166     -1.72881884      0.62428738
H      -2.95515706     -0.51926622      0.72543461
H      -2.10806015      1.08677256      0.53841549
H      -1.97370072     -1.20827986     -1.28651955
