15
b3lypvtz=-191204.7815651
N       2.34307779      0.20095493      0.30680813
C       0.97846293      0.21143383      0.34053267
N       0.23726239      0.84590743      1.17561171
C      -1.11666745      0.52369104      0.60718680
C      -0.90161822      0.73329068     -0.91908257
C       0.07737538     -0.46949715     -0.68216665
C      -1.00671630     -1.00058415      0.31677834
H       2.79302974     -0.58400379     -0.13166482
H       2.80193320      0.55290242      1.13297835
H      -1.93767660      0.96710443      1.16097972
H      -1.75912343      0.46493321     -1.53664599
H      -0.46905786      1.68189080     -1.23373658
H       0.50927122     -1.06451674     -1.48396920
H      -0.67443254     -1.63904719      1.13456967
H      -1.87492024     -1.42445974     -0.18807957
