18
b3lypvtz=-181909.81548635
C       3.20934690     -0.40076296     -0.00009979
C       2.00407436      0.18132890     -0.00001869
N       0.79548963     -0.47747142      0.00013612
C      -0.49290331      0.06879295      0.00002226
C      -0.56463244      1.56775728      0.00000279
C      -1.55796192     -0.75019309     -0.00003006
C      -3.01040355     -0.38581277     -0.00009442
H       4.10147148      0.20485775     -0.00019289
H       3.33294256     -1.47635156     -0.00007012
H       1.93022162      1.25919412     -0.00004560
H       0.83868782     -1.48442897      0.00007667
H      -0.07194378      1.98745026     -0.88049445
H      -1.59425154      1.90924713      0.00002947
H      -0.07188648      1.98747660      0.88045468
H      -1.35458989     -1.81861675     -0.00003145
H      -3.52203544     -0.79644119      0.87620009
H      -3.18313650      0.68897592      0.00001804
H      -3.52192552     -0.79624320     -0.87654665
