20
b3lypvtz=-182675.35732815
C       2.24897440     -1.37343735     -0.15280105
C       1.86995903      0.08147602      0.12711235
C       0.43336535      0.47770457     -0.25626796
C       0.25761489      1.99677663     -0.15278321
C      -0.60968483     -0.28238576      0.59579865
C      -2.03662253     -0.04840487      0.17793449
N      -2.83158451     -0.87893059     -0.35493702
H       3.30374548     -1.54610454      0.06647034
H       2.08507620     -1.62777296     -1.20255601
H       1.67542487     -2.07643442      0.45259851
H       2.55484098      0.73255455     -0.42357045
H       2.02870585      0.30659266      1.18741031
H       0.27616160      0.18736952     -1.30145118
H      -0.72500577      2.32307402     -0.49374913
H       1.00281891      2.51260017     -0.76066675
H       0.38214527      2.33407942      0.87981250
H      -0.41339930     -1.35552663      0.55427260
H      -0.49250863      0.03020814      1.64069744
H      -2.43096235      0.95538626      0.35183903
H      -2.37738792     -1.78891682     -0.47258945
