13
b3lypvtz=-239659.65112961
C      -2.66996213      0.18251559     -0.59594335
C      -1.30934656      0.01571488     -0.01260195
N      -0.26041748      0.17280707     -0.72208116
C       0.98397830      0.01591344     -0.18401362
F       1.06482790     -0.32432160      1.15307741
N       2.04794015      0.16302119     -0.85354013
N       3.24677024      0.05646494     -0.21384948
H      -3.24790148     -0.73957500     -0.48335597
H      -3.22129139      0.95995790     -0.05896471
H      -2.60892158      0.44455545     -1.64973344
H      -1.25049608     -0.24569134      1.04613102
H       3.25240774     -0.52086466      0.61915664
H       3.97241237     -0.18049786     -0.87078127
