20
b3lypvtz=-182666.96588869
C       2.38135406     -0.83072695      0.42133106
C       1.07602333     -0.82605061      0.11276498
N       0.33515574      0.21249687     -0.41092886
C       0.99535865      1.49287860     -0.55600130
C      -1.12276911      0.23898289     -0.20430195
C      -1.51283004      0.55547921      1.24663157
C      -1.80424178     -1.03645066     -0.70421481
H       2.83969663     -1.74624198      0.76289097
H       3.01816758      0.03620111      0.32962755
H       0.51051730     -1.73874412      0.24893539
H       0.33338526      2.18678242     -1.07201657
H       1.90038753      1.37577304     -1.15465440
H       1.28863409      1.93892398      0.40461135
H      -1.47963577      1.05690567     -0.83467664
H      -2.59593752      0.64993134      1.34554532
H      -1.06287946      1.49076380      1.58218390
H      -1.17891605     -0.23833466      1.91757411
H      -1.59623807     -1.89572842     -0.06542060
H      -2.88579162     -0.89436161     -0.70870806
H      -1.48348176     -1.27539293     -1.71818800
