15
b3lypvtz=-193626.7487319
C       2.96981791      0.72183058     -0.17505921
C       2.33778794     -0.40924348      0.14383410
C       0.90234380     -0.64683390      0.04663875
C      -0.06880443      0.27404241      0.10959238
C      -1.50099759     -0.09902661     -0.01944022
C      -2.49505136      1.04016528      0.05588697
O      -1.86242729     -1.24957602     -0.17474834
H       4.04223822      0.81216291     -0.07021913
H       2.44308644      1.58217029     -0.56832777
H       2.92916201     -1.25569056      0.47821563
H       0.58333492     -1.67847962     -0.06695683
H       0.16372080      1.31994953      0.27446761
H      -3.50718039      0.65767254     -0.04570254
H      -2.39338166      1.56852805      1.00729528
H      -2.29504832      1.76868859     -0.73413368
