17
b3lypvtz=-217672.25580434
C       2.92119758     -1.39232703     -0.37019989
C       1.63641101     -1.20239616     -0.63513639
C       0.59642292     -0.90244716      0.39568243
O      -0.12518372      0.25868705      0.00675824
C      -1.21443530      0.56550887      0.86388219
C      -1.95013844      1.74274109      0.25816192
O      -2.47846653      1.43669537     -1.02229777
H       3.63045630     -1.63942114     -1.14892861
H       3.31130859     -1.31287838      0.63780598
H       1.27221588     -1.27862090     -1.65475163
H       1.06012877     -0.75424116      1.37938956
H      -0.10058589     -1.74952310      0.48319306
H      -1.88720480     -0.29865100      0.94163381
H      -0.85579870      0.81749734      1.87161262
H      -1.27363315      2.60475981      0.20988027
H      -2.79545135      2.01102758      0.89344424
H      -1.74744317      1.09368894     -1.54833003
