12
b3lypvtz=-200528.77214702
C       2.06998331     -1.19164360      0.19739409
N       0.99349230     -0.76396386     -0.30431081
C       0.52992766      0.53233197     -0.04017242
N       1.05569436      1.61771965     -0.42887848
C      -0.78696013      0.57847981      0.72112792
C      -1.87002586     -0.15024515      0.06688849
N      -2.74196803     -0.70795309     -0.43350304
H       2.68332799     -0.60711967      0.89033918
H       2.41755232     -2.18762894     -0.06439322
H       1.92847938      1.44745003     -0.92906681
H      -1.06732711      1.62464712      0.83341709
H      -0.64423218      0.15355174      1.71902002
