15
b3lypvtz=-216953.94551505
C      -1.67917196     -0.34256935     -0.22266852
C      -0.50644891      0.33496897      0.49916244
C       0.69148786     -0.58278749      0.77416416
C       1.60375561     -0.32323693     -0.43051269
O       1.30021860      1.01712683     -0.86753891
C       0.09317196      1.42474326     -0.38707389
O      -0.38280418      2.48534087     -0.67097659
H      -2.43413655      0.39378682     -0.49630377
H      -1.35174006     -0.84447597     -1.13548041
H      -2.14204014     -1.08826018      0.42466766
H      -0.87796241      0.81083145      1.40594714
H       0.41940963     -1.63367776      0.86512561
H       1.19573028     -0.28573511      1.69412260
H       2.66463971     -0.36005658     -0.19320647
H       1.40599057     -1.00579883     -1.25952836
