17
b3lypvtz=-191984.04208177
C      -2.83815324     -0.75765291      0.00000410
C      -1.79557092      0.07421574     -0.00000017
N      -0.46518561     -0.31704559     -0.00000454
C       0.66204043      0.49442048     -0.00000055
C       0.43949425      1.98229921      0.00000086
N       1.85907776      0.05079978      0.00000121
C       2.08530649     -1.38194120     -0.00000020
H      -3.84320980     -0.36640659      0.00000641
H      -2.71980043     -1.83387072      0.00000525
H      -1.94998218      1.14305832     -0.00000138
H      -0.29614145     -1.31001081     -0.00000127
H      -0.11702800      2.30671439     -0.88192096
H      -0.11702790      2.30671261      0.88192342
H       1.41277017      2.46249465      0.00000135
H       1.66593997     -1.87751032     -0.88696798
H       1.66593771     -1.87751239      0.88696540
H       3.15704975     -1.57289766      0.00000104
