17
b3lypvtz=-171039.96630947
C      -1.41542956      0.90867302     -0.11679879
C      -0.24441383      1.54660759      0.01265177
C       0.86080371      0.63103683      0.41726066
C       2.11870307     -0.03933986     -0.10223317
C       0.76271595     -0.62628192     -0.40466288
C      -0.32486163     -1.50273806      0.15582813
C      -1.61913268     -0.60441075      0.01144939
H      -2.31654131      1.47141351     -0.33900862
H      -0.16414438      2.62415702     -0.07947136
H       0.78467679      0.40501085      1.47890370
H       2.76139413     -0.43327638      0.67492292
H       2.65364868      0.32820947     -0.96893253
H       0.51948173     -0.37129037     -1.43250198
H      -0.47231814     -2.44417005     -0.37937945
H      -0.14387760     -1.74507746      1.20392697
H      -2.18403979     -0.92835273     -0.86910377
H      -2.28700114     -0.79322472      0.85742301
