15
b3lypvtz=-214524.76114216
C       1.65819660     -1.40706893      0.00000478
C       1.22314958      0.03553511     -0.00000795
N       2.00331284      1.03691148      0.00002137
C      -0.26221605      0.34364129     -0.00003877
N      -0.71935904      1.52452551     -0.00007095
C      -1.26640472     -0.78761658     -0.00002684
O      -2.58450987     -0.31743701      0.00011128
H       1.27460308     -1.93201386      0.87725164
H       1.27452256     -1.93206350     -0.87717682
H       2.74459213     -1.48160010     -0.00004103
H       2.98236405      0.75435759      0.00004740
H       0.04528101      2.20236811     -0.00007699
H      -1.08987369     -1.42256914     -0.87930313
H      -1.08974327     -1.42270085      0.87912309
H      -2.51254721      0.65263688      0.00010392
