13
b3lypvtz=-247073.51952711
C      -2.25592759     -0.65665920      0.19939156
C      -1.60948338      0.49760556      0.03067432
C      -0.16074540      0.69916976      0.00727215
C       0.37990168      1.89584934     -0.23303780
C       0.71958872     -0.48746060      0.30993156
F       0.59465841     -1.44120799     -0.67063199
F       2.03858084     -0.14255031      0.35772765
H      -3.33671337     -0.68523374      0.21021861
H      -1.74617158     -1.60374427      0.30948679
H      -2.19024636      1.40467209     -0.10147933
H      -0.24770330      2.75334248     -0.43692270
H       1.44855111      2.04689947     -0.23273364
H       0.46991522     -0.96472659      1.26026884
