17
b3lypvtz=-217672.44418896
C       1.49404473      1.28367154     -0.53366476
C       0.78106240      0.15644051      0.17292645
C      -0.48807462      0.51962465      0.92690097
C      -1.71700412      0.62641134      0.01861501
O      -2.16004381     -0.63843446     -0.44435985
C       1.53094359     -1.05060702      0.53885158
O       0.67600672     -1.06272217     -0.61314172
H       2.31807315      0.89910311     -1.13301562
H       0.81397561      1.82292876     -1.19535811
H       1.89150921      1.99661670      0.19176966
H      -0.70068361     -0.23009988      1.69116262
H      -0.32980810      1.47217948      1.44045528
H      -1.51121129      1.30288987     -0.82209267
H      -2.54784268      1.05702492      0.57957063
H      -1.38171162     -1.11968842     -0.75343183
H       1.19423450     -1.66032463      1.37110671
H       2.59120296     -1.11427429      0.31509764
