17
b3lypvtz=-191960.12034758
C      -1.26371682      1.50057582     -0.26874721
C      -1.06011939      0.17936435     -0.14605007
N      -2.01422079     -0.70705134      0.36049888
N       0.06398796     -0.47504382     -0.67672370
C       0.87121543     -1.41798778      0.08184725
C       1.44825312     -0.12451923     -0.39345996
C       1.84527495      0.93532419      0.60372655
H      -2.18031946      1.95345228      0.07907131
H      -0.55083464      2.12596783     -0.78001310
H      -1.63883027     -1.50051944      0.85657554
H      -2.75464003     -0.25745255      0.87509361
H       1.09965613     -2.35385268     -0.41451034
H       0.70601559     -1.49718521      1.15337366
H       2.07270004     -0.15844236     -1.28110467
H       2.87482984      0.76146063      0.92407329
H       1.79371093      1.93375963      0.16788756
H       1.20246641      0.92609568      1.48243840
