14
b3lypvtz=-229590.65107943
C       2.64029393     -0.83566965     -0.24693765
C       1.59453202     -0.03959098      0.02775536
N       1.65004275      1.35676316      0.05016007
N       0.32368470     -0.54550367      0.30209371
C      -0.86817682      0.08994528     -0.03171321
C      -2.07633952     -0.44425996      0.11080840
F      -3.18054902      0.26158039     -0.23930927
H       3.64079832     -0.43527869     -0.30352627
H       2.50656234     -1.89200725     -0.42557131
H       2.57310844      1.71612883     -0.13621450
H       1.25132555      1.77353558      0.88130744
H       0.29190679     -1.54061119      0.44718271
H      -0.76686863      1.09109036     -0.42439746
H      -2.30875286     -1.42967921      0.49007000
