14
b3lypvtz=-203656.64923153
C      -0.34902881      1.24669672     -0.32468043
C       0.78192117      0.19962650     -0.40356129
C      -0.31722593     -0.83679318     -0.68434376
N      -1.39464584      0.22828205     -0.70944300
C      -1.36932284     -0.79209986      0.34796757
C       1.64578503     -0.07988395      0.79164139
O       1.66562979      0.58112587      1.79939220
H      -0.51109951      1.69924993      0.65307261
H      -0.28571453      2.02248121     -1.08303563
H       1.42482122      0.33800871     -1.27538829
H      -0.26358334     -1.61334136     -1.43559506
H      -1.13044728     -0.49423215      1.36330356
H      -2.17465087     -1.50916427      0.26011826
H       2.27756173     -0.98995620      0.70055187
