19
b3lypvtz=-171833.15816397
C       0.79666420      2.26413910     -0.24062245
C       0.38946217      1.21945807      0.46821671
C      -0.17245034     -0.06059818     -0.09747982
C      -1.58963453     -0.25595054      0.38074746
C      -2.65747184     -0.34836425     -0.40074494
C       0.69585801     -1.28207043      0.29375371
C       2.10899904     -1.25339468     -0.28537090
H       0.75262045      2.26846544     -1.32354868
H       1.18580899      3.15519908      0.23456356
H       0.44950456      1.26140315      1.55379034
H      -0.18419533      0.01735851     -1.18894344
H      -1.71432554     -0.33057847      1.45858723
H      -3.64816057     -0.49862302      0.00795049
H      -2.58094524     -0.27551903     -1.47953456
H       0.17927393     -2.18440644     -0.04186782
H       0.74327930     -1.34471437      1.38569934
H       2.66887901     -2.14057272      0.01476306
H       2.08537850     -1.23054057     -1.37725988
H       2.66373524     -0.37660064      0.05008760
