13
b3lypvtz=-239472.83643876
C      -0.71754879     -1.68298761     -0.58509448
C      -0.20029653     -0.62675085      0.02084171
C      -0.98656055      0.52171245      0.60561708
O      -1.18942159      1.60316625     -0.28221680
O       1.20340439     -0.64195603      0.20867360
C       1.96188008      0.44046459     -0.00162031
O       1.60257989      1.52265543     -0.38170793
H      -1.78784502     -1.76630179     -0.69858551
H      -0.09353773     -2.47170108     -0.97972865
H      -1.97702496      0.14596831      0.85873269
H      -0.50704662      0.84529743      1.53798991
H      -0.31111276      1.92493182     -0.53022734
H       3.00253019      0.18540108      0.22732604
