16
b3lypvtz=-202042.03102241
C      -1.24915934     -1.08223617     -1.28125379
C      -1.75823903     -0.18777889     -0.19931843
C      -0.34096603     -0.74406773     -0.11024822
N       0.72755342      0.15686524     -0.35757944
C       1.83943407     -0.03851012      0.21732011
N       2.95216059      0.73569182     -0.02165791
N      -2.04044872      1.19682979     -0.48422291
H      -0.99011755     -0.61622468     -2.22288523
H      -1.63815291     -2.08793241     -1.36475832
H      -2.47559764     -0.62327603      0.48548507
H      -0.16053516     -1.53588527      0.61698524
H       2.02264063     -0.86838070      0.90962535
H       3.64188837      0.78338508      0.70891812
H       2.77875578      1.60614100     -0.50023845
H      -2.00555902      1.73364018      0.37664693
H      -1.30365744      1.57173889     -1.07144417
