15
b3lypvtz=-214494.36426949
C       0.90932552     -1.23850243      0.89636486
C       0.84354743     -0.27960266     -0.03059131
C      -0.39069144      0.46852116     -0.45656831
C      -1.71832203     -0.05836206      0.07486242
O      -1.86275471      0.01963719      1.49154506
N       2.09444591      0.02701860     -0.64498437
N       2.04964054      0.94803162     -1.48281491
H       1.86280027     -1.70695952      1.09692995
H       0.04598307     -1.54204663      1.46759470
H      -0.42890020      0.47123179     -1.54965776
H      -0.27501132      1.52586694     -0.19130560
H      -1.83184966     -1.11562198     -0.16890294
H      -2.53444912      0.47874390     -0.42137512
H      -1.77092424      0.93935895      1.75917236
H       3.00695999      1.06278512     -1.84036903
