15
b3lypvtz=-216916.21084779
C      -2.69064206     -0.34395966     -0.02249735
O      -1.59083394      0.48355322     -0.35233684
C      -0.44263636      0.22420990      0.41221740
C       0.73706392      1.15195101      0.04100686
C       1.61668544     -0.09508752     -0.07053010
O       2.79840157     -0.27393143     -0.12525815
C       0.40814509     -1.03140593      0.02794947
H      -2.97680165     -0.22527596      1.02951855
H      -2.47362828     -1.40214759     -0.20819495
H      -3.52275284     -0.03867970     -0.65353809
H      -0.67905145      0.24605982      1.48186796
H       0.57341332      1.61671911     -0.93380076
H       1.04854230      1.91287273      0.75477540
H       0.49144332     -1.85496592      0.73596427
H       0.12707163     -1.42155008     -0.95311468
