14
b3lypvtz=-226953.26456636094
C      -1.18166688      0.71223669      0.52142195
C      -0.68322500     -0.76125704      0.50674200
C       0.68623375     -0.20504713      0.40175721
N       0.23653794      1.21289780      0.28674346
H       0.61351289      1.84242549      0.99541690
H       0.42138733      1.64537768     -0.62244472
C       2.02902475     -0.47373384      0.20862837
O       2.86831620      0.42483156      0.00060820
O      -1.13007220     -1.50319146     -0.63739857
H      -1.56894231      1.09231996      1.46363111
H      -1.83627849      0.97124166     -0.30614892
H      -0.94045772     -1.32805738      1.40863506
H       2.32825956     -1.53852271      0.25196513
H      -1.84262985     -2.09152127     -0.36477868
