13
b3lypvtz=-237080.11863687
N      -1.42224969      0.83685008     -0.64771755
C      -1.09797754      0.14811854      0.50912703
N      -1.88632090     -0.03531356      1.50754612
C       0.22677952     -0.47431698      0.58918404
C       1.25124095     -0.39442307     -0.26969843
O       1.24806877      0.32224069     -1.41476793
O       2.44975995     -1.01465408     -0.11339040
H      -0.67553786      1.14834589     -1.24461207
H      -2.21077391      1.45821436     -0.58594934
H      -2.78380709      0.42438865      1.35625886
H       0.37034259     -1.06481743      1.48224387
H       2.09398492      0.19013627     -1.85920456
H       2.43649030     -1.54486936      0.69098036
