14
b3lypvtz=-227001.15366095
C      -2.10997172      1.05699105      0.14994649
C      -0.97719223      0.14769728     -0.27383055
O      -1.41587319     -1.08056693     -0.80364227
O      -0.16000062     -0.04963342      0.87817958
C       1.04795348     -0.73950283      0.62704360
C       2.04433615      0.10028066     -0.06098073
N       2.81440815      0.76115057     -0.60230131
H      -2.77836122      1.23127711     -0.69177652
H      -1.72139275      2.01171135      0.50129562
H      -2.67335583      0.59701584      0.96485942
H      -0.38019150      0.59748694     -1.07186671
H      -2.06211351     -1.46037737     -0.19621344
H       0.87630146     -1.64027802      0.03173223
H       1.45083732     -1.03652222      1.59479959
