17
b3lypvtz=-191959.75688782
C       1.34045755      0.69901082      0.45927606
C       1.47488815     -0.69602420     -0.15558702
N       0.24538308     -1.48348195     -0.07491423
C      -0.97332898     -0.77795786     -0.39101707
C      -1.68191427      0.04462890      0.67950021
C      -0.94306327      0.73566360     -0.42297137
N       0.27348171      1.48346054     -0.17579746
H       2.27194478      1.26048397      0.36288670
H       1.13089612      0.61264025      1.52977694
H       1.75887333     -0.58798576     -1.20915454
H       2.27234395     -1.26028618      0.33145225
H       0.17656845     -1.95877913      0.81377190
H      -1.61044355     -1.28158379     -1.11142347
H      -1.24243238      0.03780983      1.66811829
H      -2.76279601      0.08640407      0.67142086
H      -1.55671442      1.21638659     -1.17318118
H       0.61551974      1.81832230     -1.06936586
