21
b3lypvtz=-172607.74126267
C       2.32877013     -0.61918261      0.62359603
C       1.47112801     -0.23638289     -0.59233462
C       0.16884852      0.45003570     -0.22146730
C       0.32465438      1.94417681     -0.07196122
C      -0.98504614     -0.21128764     -0.03908672
C      -2.29845752      0.44137052      0.31472634
C      -1.11795303     -1.70981213     -0.16365606
H       2.54051829      0.24867365      1.25088368
H       3.28507473     -1.04381533      0.31147454
H       1.81794692     -1.35658218      1.24447888
H       2.04881116      0.44233400     -1.22687606
H       1.29016982     -1.12473783     -1.19689673
H       0.51744687      2.40924117     -1.04449177
H      -0.53587426      2.43920607      0.36883576
H       1.19050849      2.17593337      0.55484595
H      -3.06353199      0.17039841     -0.41981437
H      -2.25777241      1.52560369      0.35984195
H      -2.66194217      0.07844861      1.28165428
H      -1.52046524     -2.13132398      0.76289586
H      -1.83126478     -1.97024119     -0.95246457
H      -0.18301679     -2.22037622     -0.37605386
