13
b3lypvtz=-190466.06188158
C      -3.45021663     -0.00418468     -0.00000949
C      -2.20025844     -0.46249365     -0.00000018
N      -1.05837394      0.32777585      0.00000328
C       0.21585172     -0.14928300      0.00000377
C       1.33453268      0.60672915      0.00000002
C       2.62266703      0.02631376      0.00000219
N       3.68464350     -0.43001899      0.00000385
H      -3.67851826      1.05380959     -0.00001607
H      -4.27868516     -0.69419964     -0.00001024
H      -1.99036897     -1.52466128      0.00000661
H      -1.18906471      1.32818284     -0.00000452
H       0.29196637     -1.22915703      0.00000851
H       1.28177982      1.68849807     -0.00000474
