16
b3lypvtz=-202070.34393612
C      -2.01340465     -0.74801227     -0.63103284
C      -1.18244217     -0.11332886      0.48257125
C      -0.69341208      1.32468233      0.14546720
N       0.68615749      1.18280456     -0.32747994
C       1.05603459      0.00453446      0.00643410
N       2.33500742     -0.48264495     -0.16106597
N       0.11717568     -0.78089453      0.67724291
H      -2.96799903     -0.22903960     -0.73742325
H      -2.23049218     -1.79753854     -0.41786682
H      -1.48806670     -0.69015503     -1.58645201
H      -1.74722563     -0.13246417      1.41568729
H      -0.71999414      1.96259889      1.03498166
H      -1.31946768      1.79942647     -0.61298684
H       2.42453520     -1.47347538     -0.31983592
H       2.88382421      0.07667831     -0.79477065
H       0.14978266     -1.77998467      0.53363083
