11
b3lypvtz=-264588.79194279
C      -0.49537969      0.38580449      0.05006344
C      -1.66417351     -0.26333012      0.01635955
O      -2.90331717      0.24083363     -0.02434709
F      -1.74102474     -1.58904184      0.01948537
C       0.78364510     -0.27860582      0.09290326
N       1.85744884      0.41281502      0.12310266
O       2.98745381     -0.42190650      0.16212948
H      -0.50244849      1.46711389      0.04518032
H      -2.86087864      1.20383773     -0.02680942
H       0.82430485     -1.36569663      0.09919740
H       3.71436962      0.20817616      0.18161162
