19
b3lypvtz=-192736.44044271
C      -2.89566067     -0.31830090     -0.18672762
C      -1.40492866     -0.19227556     -0.46996734
N      -0.71713728      0.38251322      0.68856431
C       0.74825941      0.48976747      0.60467197
C       1.17840644      1.53617723     -0.41858386
C       1.40523471     -0.87238323      0.41433206
N       2.22165533     -1.26547024     -0.46819297
H      -3.42336918     -0.70800713     -1.05796574
H      -3.08139953     -1.00306357      0.64469367
H      -3.32172520      0.65119175      0.07338411
H      -1.25661384      0.47544461     -1.32101433
H      -1.00268343     -1.17175726     -0.76759939
H      -0.97083891     -0.13550065      1.52207027
H       1.06705154      0.83997096      1.59312846
H       2.24953087      1.73005513     -0.35052229
H       0.95915270      1.22757894     -1.44175786
H       0.64839911      2.46802989     -0.22706738
H       1.08929960     -1.61297779      1.15785516
H       2.45410000     -0.51183087     -1.11826022
