15
b3lypvtz=-170281.50318242
C       3.44134633     -0.40480499      0.05491250
C       2.31610244     -0.66419607     -0.28524163
C       0.99933687     -0.98782721     -0.70183953
C      -0.09279600     -0.35608764     -0.26736934
C      -1.56384952     -0.46908363     -0.61034727
C      -1.77928903      0.90972244      0.08491882
C      -0.32470795      0.83172581      0.63990747
H       4.43146412     -0.17508354      0.35931864
H       0.89660833     -1.79638439     -1.41923834
H      -2.05885777     -1.28980510     -0.08544582
H      -1.81675296     -0.54075899     -1.66874019
H      -1.91116659      1.72103013     -0.62861565
H      -2.57709141      0.95747624      0.82312929
H       0.32171782      1.69494138      0.48064561
H      -0.28206468      0.56913555      1.69968360
