11
b3lypvtz=-259559.5184754878
C       0.72133290      0.36850467     -0.28856797
C      -0.47958641     -0.07500775      0.17612476
N      -1.48321153      0.80694213      0.44889275
O      -0.74322360     -1.36907609      0.38856353
N       1.83746039     -0.44456778     -0.60749201
O       2.83731916      0.15474177     -1.01555855
O       1.77507915     -1.66461487     -0.47303695
H       0.89568240      1.41755819     -0.44674420
H      -1.34422981      1.79037320      0.30900944
H      -2.37597211      0.50623754      0.79175980
H      -1.64065053     -1.49109100      0.71704939
