17
b3lypvtz=-243585.06526424
C      -1.13515451      1.87852771     -0.05897653
N      -0.04520703      1.06045205      0.46939288
C       0.14314550     -0.22906672     -0.18427660
C       1.53743871     -0.75129530      0.15003022
O       2.48752273      0.20295798     -0.32052250
C      -0.88626722     -1.25532748      0.26457770
F      -2.13623523     -0.99445845     -0.30360866
H      -1.08821071      2.01838702     -1.14966309
H      -1.09789989      2.86047474      0.41309620
H      -2.09852150      1.42952220      0.17434716
H       0.82457017      1.57073133      0.37732659
H       0.07044635     -0.15154516     -1.28267819
H       1.62671086     -0.88182950      1.23434591
H       1.69166499     -1.72110832     -0.33461461
H       3.35036837     -0.00878109      0.04516958
H      -1.00517395     -1.22600352      1.34905359
H      -0.59878762     -2.26068348     -0.05329766
