15
b3lypvtz=-214536.84825474
C       2.44322760      0.68905835     -0.00852864
C       1.20062903     -0.03500513     -0.44911567
C       0.78901926     -1.35424721      0.10406635
N       0.09405176     -0.14579022      0.51395774
C      -1.23782523      0.03459479      0.07676359
N      -1.58036250      1.36029858     -0.00230967
O      -1.99882174     -0.87247792     -0.18820894
H       2.32213410      1.77026479     -0.10321055
H       3.29582701      0.39351170     -0.62352174
H       2.67220192      0.46149156      1.03255254
H       0.89682929      0.14730899     -1.47575590
H       1.38945598     -1.81914100      0.87640857
H       0.23912201     -2.03307234     -0.53515294
H      -2.56096019      1.55450884     -0.11232833
H      -1.03713432      2.02522923      0.52038159
