9
b3lypvtz=-235563.10951387
C      -0.81416691     -1.01265763     -0.25178181
N       0.41394592     -1.29952382     -0.19485868
C       1.34553018     -0.23802878     -0.00836656
O       2.52307585     -0.44633932      0.05360568
N       0.81951629      1.08132024      0.10145220
C      -0.43161844      1.23304200      0.02770693
O      -1.35132506      0.23906297     -0.15046247
H      -1.58951468     -1.75699570     -0.39149684
H      -0.91544315      2.20012006      0.10104699
