15
b3lypvtz=-240253.86879117
O       2.62415018     -1.46426149      0.96788475
C       1.68880512     -0.71861271      0.84103946
O       1.33836458      0.12135993      1.82871195
C       0.87058473     -0.66110458     -0.44902317
C      -0.66705179     -0.64704451     -0.31918262
C      -1.30757323      0.72905522     -0.25817608
O      -0.89509951      1.38685250      0.95097522
H       0.56343519      0.66472638      1.57853852
H       1.20186521      0.22118851     -1.00738606
H       1.18716659     -1.52840781     -1.02360647
H      -1.08906045     -1.14905849     -1.19245766
H      -0.98393437     -1.22936169      0.54936657
H      -1.00419527      1.32127405     -1.12775549
H      -2.39727707      0.63512396     -0.26892147
H      -1.13027991      2.31827074      0.92079254
