13
b3lypvtz=-213745.23726604
C      -1.61380351      0.18871125      0.18226774
C      -0.27943542      0.11130325     -0.44798752
N      -1.12242742     -1.08741380     -0.36539249
C       0.98391273     -0.00984953      0.38394886
C       1.67421778      1.28364983      0.48281994
N       2.16948951      2.31724993      0.56874499
O       1.88505257     -0.94898777     -0.17885440
H      -2.39299266      0.71793813     -0.35121295
H      -1.70107064      0.21747664      1.26098762
H      -0.14053489      0.57836870     -1.41584554
H      -1.55353494     -1.28484453     -1.26131829
H       0.69985137     -0.30878539      1.40050640
H       1.39127551     -1.77481670     -0.25866437
