15
b3lypvtz=-191200.23904285
C       3.04617417      0.68454859     -0.04750036
N       1.80912450      0.47880122      0.14703709
C       1.26049871     -0.73005189     -0.28816926
C      -0.01566850     -1.05776420     -0.07094445
C      -1.02123751     -0.22044506      0.65875190
N      -2.29523524     -0.23261335     -0.05646997
C      -2.80918443      0.87813477     -0.35600522
H       3.70661574     -0.04454129     -0.53174471
H       3.48859636      1.62234296      0.27548436
H       1.91484751     -1.42063745     -0.82311387
H      -0.37652486     -2.00842277     -0.44439432
H      -1.20849729     -0.68073187      1.63673111
H      -0.63177826      0.78751413      0.83130990
H      -2.35002830      1.84411865     -0.11238354
H      -3.76036160      0.89991756     -0.88412363
