17
b3lypvtz=-191919.61145467
C       0.27430505      0.73085039     -0.13192104
C       1.29352503      0.00536180      0.76928365
C       0.11380868     -0.93736183      1.07368945
N      -0.01263391     -0.74845634     -0.45139574
C       1.53952047     -0.87235224     -0.48071361
C       2.13345028     -2.26425555     -0.45831909
N       1.83895159     -2.91371334     -1.73939524
H       0.65014007      1.29553108     -0.98483153
H      -0.56287514      1.23673690      0.34824374
H       2.02615571      0.43567444      1.45855016
H      -0.73282814     -0.52525447      1.62269606
H       0.31372761     -1.95767220      1.38851107
H       1.94176290     -0.34518086     -1.34802062
H       3.21909272     -2.16080080     -0.36752926
H       1.79937058     -2.83589169      0.41496832
H       2.19697042     -3.86061631     -1.75362895
H       0.83455607     -2.96919896     -1.86668739
