16
b3lypvtz=-181142.17230986
C       1.50512661      1.55919966     -0.05408245
C       0.46104703      0.74008385      0.04906052
C      -0.99690028      1.16449210      0.16329210
N      -1.79753517     -0.00002415     -0.25065826
C      -0.99686505     -1.16452886      0.16325706
C       0.46107076     -0.74007161      0.04905211
C       1.50517887     -1.55915305     -0.05407520
H       1.38044146      2.63455046     -0.05467161
H       2.51870540      1.18880290     -0.14116649
H      -1.23458850      1.40333529      1.20585470
H      -1.23869211      2.04134353     -0.43575515
H      -1.85692924     -0.00000949     -1.26296079
H      -1.23455351     -1.40341809      1.20580885
H      -1.23862331     -2.04136638     -0.43582414
H       1.38052808     -2.63450786     -0.05467775
H       2.51874795     -1.18872330     -0.14113150
