17
b3lypvtz=-194369.7341056
C       1.66109368     -1.35599201      0.15792207
C       0.91725830     -0.26416662      0.14119251
C       1.19847415      1.22573901      0.07804828
C      -0.21676215      1.40494164     -0.54620782
C      -0.57378404     -0.04460928     -0.07786217
C      -1.39177954     -0.08013628      1.21068756
O      -1.12216142     -0.92090328     -1.04965848
H       2.74035278     -1.30754586      0.23541178
H       1.21195660     -2.33719549      0.07225612
H       1.28748907      1.68917933      1.06281567
H       2.05021144      1.53497242     -0.52611561
H      -0.17695945      1.44647795     -1.63305493
H      -0.83693685      2.21735134     -0.16724817
H      -1.43444986     -1.09777929      1.60012954
H      -2.41203601      0.26871275      1.02244177
H      -0.95924458      0.56336938      1.97743379
H      -2.08180015     -0.84189872     -1.03039191
