16
b3lypvtz=-204455.26966421
C      -2.21801564     -0.83043869      0.14074700
C      -0.85044313     -0.33770007     -0.36881731
C      -0.87605054      1.17808055     -0.40057957
O      -0.21258019      1.89943847      0.29766464
C       0.32362098     -0.88267107      0.45968576
C       1.64404059     -0.77626010     -0.26134822
N       2.62104839     -0.01762442      0.00011507
H      -2.29043615     -1.91350926      0.04318148
H      -3.03954110     -0.38789560     -0.42542733
H      -2.35465994     -0.57215422      1.19206157
H      -0.75220308     -0.66334151     -1.41203980
H      -1.60644943      1.60759213     -1.11888122
H       0.37438070     -0.35059653      1.41095686
H       0.13384306     -1.93848304      0.67456731
H       1.75243900     -1.44213489     -1.12419581
H       2.41179146      0.57520424      0.80698356
