14
b3lypvtz=-201284.43350703
C      -2.17593099     -0.29822724     -1.18191102
C      -1.23800262     -0.20718456     -0.22489441
N      -1.52337709     -0.12467640      1.14695594
N       0.09487569     -0.11637454     -0.63799038
C       1.02085404      0.20516731      0.18008055
C       2.41312795      0.27620158     -0.27982392
N       3.41667817      0.59672656      0.43290782
H      -3.22833239     -0.36480659     -0.94469290
H      -1.87774200     -0.26353494     -2.21682022
H      -0.94224145     -0.71907822      1.72292165
H      -2.49763607     -0.28130922      1.35837308
H       0.84017782      0.46370720      1.22906702
H       2.56995122      0.02478668     -1.32840222
H       3.12759771      0.80860239      1.39224366
