13
b3lypvtz=-213776.77993336
C       0.18274398     -0.87695161     -0.21619231
C       1.37203927     -0.13911508      0.03194358
C       1.02264508      1.14614590      0.36537388
N      -0.35779436      1.20099144      0.33261429
C      -0.87529754     -0.01015463     -0.01741675
N      -2.27853276     -0.16532851     -0.08396711
O       2.66633503     -0.58187190     -0.04296926
H       0.10700820     -1.90795769     -0.52251012
H       1.62988032      1.99647499      0.61419299
H      -0.92584120      1.98561400      0.59671470
H      -2.57171452     -1.06081961      0.28265424
H      -2.63395148     -0.08259597     -1.02946414
H       2.66247999     -1.50443131     -0.31097400
