13
b3lypvtz=-213770.5766257
C       1.36168167      1.70468974      0.09803655
C       0.17694968      1.15813188     -0.15034768
N      -0.18127398     -0.20559077     -0.04922830
C      -1.54495155     -0.57409312     -0.01897645
N      -2.57085889      0.15141102      0.09343822
C       0.74922429     -1.24114336     -0.00748697
O       1.94585297     -1.11469636      0.02418296
H       2.21378320      1.13985933      0.43390959
H       1.47543900      2.76760047     -0.05989677
H      -0.64040377      1.77094894     -0.50408854
H      -1.67383605     -1.65043361     -0.10387350
H      -2.36394510      1.14226251      0.19979110
H       0.25408853     -2.22458567     -0.00530921
