15
b3lypvtz=-193530.49098744
C       1.36588652     -0.85284545      0.49637126
O       1.21492594      0.41529585      1.19522258
C       0.34002574      1.15866326      0.36565685
C      -1.10713743      0.46968180      0.38885751
C      -0.89515723     -0.81189219     -0.59824774
C       0.62067439     -0.63207559     -0.81241243
C       0.63467037      0.72044589     -1.05682611
H       0.93641551     -1.66009307      1.09401509
H       2.42916792     -1.04956040      0.35369473
H       0.35570836      2.20285952      0.66964173
H      -1.38654916      0.23568151      1.41944010
H      -1.88344096      1.11662365     -0.02639080
H      -1.49013900     -0.68447710     -1.50083078
H      -1.15603331     -1.76324582     -0.13562086
H       0.02098232      1.13493813     -1.85237112
