16
b3lypvtz=-181143.32980756
C       2.51453271     -0.01430175     -0.18571488
C       1.02432186      0.00211877     -0.42317030
C       0.12645925      0.77196691      0.53030960
C      -1.20682204      1.12373915     -0.02590708
N      -1.95617729      0.15408212     -0.36824999
C      -1.27124747     -1.11103196     -0.03215438
C       0.11238581     -0.74869585      0.49738807
H       2.97327300     -0.89278055     -0.64516557
H       2.74465848     -0.04077505      0.88111826
H       2.99379052      0.87155677     -0.60759307
H       0.72944883      0.03746793     -1.46721300
H       0.57624479      1.35896301      1.31991785
H      -1.53819278      2.15007153     -0.15975773
H      -1.87207669     -1.64194923      0.71086526
H      -1.23548814     -1.74323457     -0.92275756
H       0.55119615     -1.32747923      1.29873951
