17
b3lypvtz=-220270.37307573
C      -2.36943559      0.41270254      0.66392087
N      -1.27322537     -0.45292629      0.25630741
C      -0.90229480     -0.41246051     -1.15387813
C      -0.02434186      0.19502860     -0.11520305
C       1.25998277     -0.45423366      0.34080343
C       2.45765510     -0.06814363     -0.50207768
F       2.70268799      1.30545420     -0.39122804
H      -2.28072501      0.62959622      1.72938055
H      -3.31651256     -0.10333060      0.49938544
H      -2.39604176      1.36689592      0.11724701
H      -1.44985723      0.26322637     -1.80407082
H      -0.64388814     -1.36547565     -1.60153417
H      -0.01897018      1.28164140     -0.08935820
H       1.14406818     -1.54058105      0.30677397
H       1.46100047     -0.18911737      1.38278079
H       2.29050964     -0.28155875     -1.56059248
H       3.35938833     -0.58671776     -0.17096901
