13
b3lypvtz=-213768.09353934
C      -1.59945411      0.31081390     -0.47973411
C      -0.24274073      0.97344318     -0.25381687
O       0.13238802      2.04323008     -0.65419033
C       0.59729221     -0.04670414      0.54466693
C      -0.28866032     -1.26215458      0.42855214
N      -1.43605663     -1.09479829     -0.09362204
N       1.97437857     -0.25973054      0.13029387
H      -1.93610331      0.39793098     -1.51457273
H      -2.36312464      0.78902517      0.14120668
H       0.60896729      0.28672367      1.59054150
H       0.03340623     -2.24220244      0.76988330
H       2.01524073     -0.49200371     -0.85615731
H       2.50446669      0.59642671      0.24694896
