18
b3lypvtz=-205204.91394254
C      -1.84257141      0.16641427      0.51697805
C      -0.63747053     -0.01096086     -0.39104894
C       0.55457160      0.98548019     -0.16707293
C       1.53016583     -0.21504142     -0.25606951
C       0.34330249     -1.16823509     -0.04372390
O       2.53691084     -0.34274797      0.73195985
N      -1.11091225     -0.13565816     -1.77301618
H      -2.53125346     -0.67164221      0.40019258
H      -2.38442054      1.08388277      0.26891964
H      -1.54063025      0.23069958      1.56261580
H       0.66389450      1.79209505     -0.89355243
H       0.56168093      1.39977237      0.84212748
H       1.96485137     -0.31606612     -1.25620585
H       0.27965794     -1.45274343      1.00644083
H       0.28273835     -2.06090943     -0.66503547
H       3.24898605      0.27324568      0.53373714
H      -0.33950876     -0.27458378     -2.41582056
H      -1.57999269      0.71699856     -2.06122195
