16
b3lypvtz=-202029.34081674
C       2.91383402     -0.39747954      0.09935874
N       1.64511742     -0.50746714      0.01225874
N       0.89298276      0.58914918     -0.12704299
C      -0.50647223      0.52357756     -0.05223794
C      -1.22888486      1.65327221      0.08588488
N      -1.00381674     -0.74704660     -0.17752980
C      -2.39109717     -1.03308219      0.10139271
H       3.43241990      0.56276980      0.07801084
H       3.49409222     -1.30376551      0.19270056
H       1.31694893      1.50304281     -0.02627016
H      -2.30455210      1.63549485      0.10815605
H      -0.73758324      2.61274051      0.14074790
H      -0.32696154     -1.47123515     -0.00226824
H      -2.54908473     -2.10716595      0.02564383
H      -3.04146619     -0.54705604     -0.62926651
H      -2.70022645     -0.70162779      1.10020738
