13
b3lypvtz=-213745.73927989
N       2.76806674     -0.17773374     -0.00101918
C       1.61395412     -0.69163455     -0.00077233
C       0.34515209      0.13366186      0.00100302
O       0.37767557      1.34174563      0.00187193
N      -0.83161787     -0.66734291      0.00181992
C      -1.98278352     -0.05547872      0.73123309
C      -1.98197145     -0.05798639     -0.73127085
H       2.68077392      0.84487115      0.00002176
H       1.48929672     -1.77195415     -0.00162770
H      -2.57063294     -0.77705915      1.28127940
H      -1.78561701      0.88716718      1.22471348
H      -2.56918357     -0.78131415     -1.27969459
H      -1.78413879      0.88299194     -1.22767994
