12
b3lypvtz=-226266.47699586
N      -2.24239826     -0.78433601      0.03071816
C      -1.12896500     -0.21130082     -0.00802668
C      -0.73820617      1.25573048     -0.06619533
C       0.78432892      1.24558069      0.06618098
C       1.16242936     -0.22308299      0.00804501
O       2.24565992     -0.71494526     -0.00994637
O       0.01489939     -0.98846385     -0.01185225
H      -2.99928149     -0.10517614      0.02646566
H      -1.06831530      1.67411212     -1.01748739
H      -1.24119015      1.80860918      0.72548419
H       1.13718437      1.64698222      1.01645700
H       1.30928540      1.78009238     -0.72324998
