20
b3lypvtz=-182662.43737872
C      -2.43118332     -0.44875030     -0.22001272
C      -1.23762241     -0.33795458      0.73023876
C       0.04832813      0.19999284      0.10052573
C      -0.10130831      1.63817579     -0.39494697
C       0.75699122     -0.72538486     -0.93434199
C       2.04558224     -0.52067046     -0.11106034
N       1.22889629      0.01493782      1.00445664
H      -2.18769108     -1.05535926     -1.09545836
H      -3.27833837     -0.92164572      0.27902603
H      -2.76678536      0.52636674     -0.57597681
H      -1.00579350     -1.31924255      1.14925085
H      -1.49796865      0.30083033      1.58104202
H      -0.38458851      2.29908921      0.42884478
H       0.83591027      2.00599959     -0.81738349
H      -0.86708042      1.72274512     -1.16797093
H       0.39041232     -1.75044985     -0.90375643
H       0.77141409     -0.38155395     -1.96692122
H       2.61618150     -1.41456991      0.14656919
H       2.72787332      0.20452038     -0.56616763
H       1.57990354      0.86872162      1.42306488
