19
b3lypvtz=-218431.40016822
C      -3.51903715     -0.11246764      0.13780698
O      -2.22549968     -0.51049679     -0.26063129
C      -1.21421880      0.38159764      0.16879423
C       0.13049006     -0.13201313     -0.31671920
C       1.28212740      0.76634732      0.13203462
O       2.54260896      0.37383598     -0.38563561
C       3.12919983     -0.72876450      0.27493142
H      -3.60763646     -0.06124454      1.23078069
H      -4.21903399     -0.85657518     -0.23839697
H      -3.78590714      0.86830383     -0.27655927
H      -1.22530649      0.46028375      1.26639005
H      -1.40799200      1.38892957     -0.22879551
H       0.12427867     -0.18536348     -1.40712803
H       0.26668848     -1.14880648      0.05683485
H       1.32660870      0.81163738      1.22964208
H       1.12255956      1.78385302     -0.23134176
H       3.24497823     -0.53440089      1.34908752
H       4.11468441     -0.87571454     -0.16407246
H       2.55113741     -1.65078431      0.14890665
