18
b3lypvtz=-181903.69620849
C      -2.40008698     -1.24044061      0.21810011
C      -1.33347954     -0.75414705     -0.41024170
C      -0.70708400      0.55434188     -0.13745549
C      -1.43628525      1.65539760      0.10833194
N       0.68702515      0.58819228     -0.26944775
C       1.51360471     -0.40882030      0.41155346
C       2.95984151     -0.31971095     -0.05512103
H      -2.83190882     -2.19137607     -0.06402830
H      -2.87036084     -0.70456269      1.03257280
H      -0.86292680     -1.34117660     -1.19344478
H      -2.51199326      1.63618527      0.03048045
H      -0.96624395      2.60483969      0.33176451
H       1.05083886      1.52345772     -0.14621827
H       1.46594069     -0.29589907      1.50408337
H       1.11042055     -1.39625899      0.18617672
H       3.02908125     -0.47964553     -1.13150469
H       3.38641262      0.66134721      0.16774845
H       3.57366911     -1.06710379      0.44926120
