15
b3lypvtz=-214489.16554175
C      -2.94177867     -0.17883646      1.19333070
C      -1.96801786      0.27877576      0.40340726
N      -0.60722888      0.06155002      0.55301005
C       0.25819395      0.04420071     -0.61874598
C       1.67244763      0.34500219     -0.23094792
N       2.58254648     -0.49799554     -0.49327859
O       3.84156034     -0.05085208     -0.06844958
H      -2.74410707     -0.83463655      2.03200041
H      -3.96435121      0.12090197      1.02461952
H      -2.20800149      0.93100355     -0.43006182
H      -0.37047634     -0.64074147      1.23931114
H       0.23284507     -0.90429262     -1.16688270
H      -0.09804295      0.82381498     -1.29815591
H       1.89259989      1.27800341      0.28604793
H       4.42181110     -0.77609787     -0.32150452
