13
b3lypvtz=-213750.15411652
C      -0.96767011      1.60193814      0.48198889
C      -0.40325030      0.57450509     -0.14248777
C      -1.08018857     -0.69683693     -0.50681128
N      -2.11899373     -1.20452963      0.01144558
O       0.88831655      0.70795154     -0.64040656
C       1.86843545     -0.13287124     -0.17135404
N       1.84671100     -0.93397763      0.79447923
H      -2.00973565      1.57144335      0.76486556
H      -0.40744295      2.50185743      0.68773494
H      -0.60854717     -1.23220046     -1.33222288
H      -2.46332318     -0.64188232      0.79253649
H       2.75656595      0.00075290     -0.78044830
H       0.96127370     -0.94672024      1.29795015
