13
b3lypvtz=-213737.3412955
C       1.80467831     -0.07118022     -0.37880917
C       0.69361921      0.44935763      0.41175739
N       0.78823262      0.75882317     -1.09767382
C      -0.37470022     -0.09620092     -1.27359963
O      -1.02731750     -0.26648491     -2.25525443
C      -0.55678265     -0.41558134      0.23633143
N      -1.75671805      0.08721997      0.87303359
H       2.76433555      0.42410873     -0.32678599
H       1.85540476     -1.13110503     -0.60352978
H       0.78173938      1.25158739      1.12929712
H      -0.42469775     -1.46295538      0.51111296
H      -2.53877588     -0.52891996      0.68815518
H      -2.00901778      1.00133087      0.51297000
