17
b3lypvtz=-171055.07236386
C      -2.76128890     -0.79843072     -0.55100228
C      -1.76633254     -0.58768683      0.08562098
C      -0.54858471     -0.32922822      0.85395219
C       0.44186213      0.56818646      0.12946000
C      -0.02525977      1.98275960     -0.07903454
C       1.64143654      0.15932274     -0.28597237
C       2.26483334     -1.19925736     -0.18095039
H      -3.64068364     -0.98872757     -1.11351061
H      -0.09220167     -1.28204088      1.12088790
H      -0.83204140      0.14917739      1.79865058
H      -0.23062128      2.47321010      0.87782018
H       0.71875997      2.57408583     -0.61124291
H      -0.95659818      2.00737900     -0.65015042
H       2.26516978      0.90205564     -0.77642075
H       1.62233521     -1.93802702      0.29428076
H       2.52266355     -1.57876095     -1.17364046
H       3.19928958     -1.15449120      0.38576516
