13
b3lypvtz=-237045.1874686
C      -1.87954271     -0.98750693      0.14992379
C      -0.98468555     -0.07428159      0.51546017
O      -1.28934655      0.87520257      1.45933860
C       0.36449029      0.05232728     -0.08360173
N       0.91596188      1.32490234     -0.08796808
N       0.97110394     -1.00961763     -0.47159763
O       2.21828793     -0.66690614     -1.06114347
H      -1.64402626     -1.68169787     -0.63938419
H      -2.83950638     -1.04345877      0.64142872
H      -0.47092271      1.28512379      1.76409490
H       0.27258085      2.07121236     -0.30473520
H       1.78688479      1.38302493     -0.59383481
H       2.57872049     -1.52852434     -1.28798108
