12
b3lypvtz=-231216.82979518
C       2.44404049     -0.63483363      0.18691671
C       1.48648045      0.05061159      0.41106617
C       0.31740389      0.88892201      0.64382689
C      -0.75504075      0.67762998     -0.42858954
O      -1.06301698      1.53841925     -1.21224768
C      -1.43330265     -0.68297543     -0.50091935
F      -1.26165447     -1.41525522      0.66379956
H       3.29550880     -1.24078659      0.00150781
H       0.58735078      1.94502421      0.62252672
H      -0.11246798      0.65526656      1.62198928
H      -1.00599900     -1.24634093     -1.33415995
H      -2.49930257     -0.53568179     -0.67571664
