10
b3lypvtz=-251380.82908142
C      -2.21926413     -0.51945105      0.29505639
N      -1.02688131     -0.94348813      0.19759187
C      -0.03811998      0.06729058     -0.04127553
O      -0.26274602      1.24955567     -0.14755984
N       1.24826329     -0.53038551     -0.13419569
C       2.19996750      0.25748062     -0.34429458
F       3.43293831     -0.21384337     -0.44471564
H      -3.01084047     -1.24123559      0.47661868
H      -2.48525110      0.53609283      0.20487292
H       2.16193391      1.33798397     -0.46393445
