16
b3lypvtz=-204452.98886807
C       0.59632104     -1.70800103     -0.58061452
C       0.80592823     -0.50488428     -0.03585226
N       2.03084335     -0.13564182      0.56254414
C      -0.14477363      0.62805365     -0.13372107
O       0.45504057      1.84875379     -0.36634240
C      -1.47264223      0.58768990      0.01665256
C      -2.32794857     -0.59106920      0.36159184
H       1.31733612     -2.50797407     -0.46991444
H      -0.27807324     -1.90320557     -1.17928715
H       2.68854434     -0.89760927      0.63952074
H       1.92700846      0.34163750      1.44872686
H       1.40184348      1.69292160     -0.47331745
H      -1.98074335      1.53803606     -0.10781984
H      -2.89200275     -0.95166628     -0.50500454
H      -1.74569631     -1.42784881      0.74367844
H      -3.06755549     -0.31325615      1.11672007
