18
b3lypvtz=-205215.5851051
O       1.91113392      0.94821618     -0.46600887
C       1.79186812     -0.42780952     -0.13837524
C       0.34637195     -0.87711707      0.10321915
C      -0.59334908     -0.49920065     -1.07564969
C      -1.42706809      0.69861738     -0.56350209
N      -0.72593397      1.11428875      0.66319402
C      -0.28205190     -0.13532425      1.29432454
H       1.18305506      1.41445760     -0.02124547
H       2.39138491     -0.66408847      0.75231461
H       2.21577911     -0.99368371     -0.97272719
H       0.35546733     -1.95411150      0.27950060
H      -1.24069574     -1.33072513     -1.35059219
H      -0.01113209     -0.22519006     -1.95351640
H      -2.45795369      0.38154466     -0.35735561
H      -1.46661302      1.52310307     -1.27534280
H      -1.30740122      1.67909146      1.26927827
H      -1.11412605     -0.71814062      1.71714552
H       0.43136446      0.06597190      2.09523883
