15
b3lypvtz=-191216.59957653
C      -0.81943549     -1.37787398     -0.06564379
C       0.49739377     -1.53559584     -0.02508231
C       1.56933401     -0.50665187      0.12948835
N       1.24354468      0.86705951     -0.22311043
C       0.06957843      1.55264260      0.01155970
N      -1.13946613      1.19592513      0.13433817
C      -1.66437489     -0.14041492      0.01065692
H      -1.41745708     -2.28167378     -0.15430471
H       0.88589571     -2.54786119     -0.06498946
H       1.93082593     -0.55412956      1.16871449
H       2.41889339     -0.80220543     -0.49256271
H       2.04839722      1.47257558     -0.20631322
H       0.25719336      2.62767684      0.05044580
H      -2.36801895     -0.28809882      0.84064941
H      -2.31492994     -0.13601827     -0.87536121
