11
b3lypvtz=-213018.88773325
C       0.73786942     -0.85066592      0.18341056
C       1.79551168      0.05029538     -0.00635294
N       1.34832018      1.28077069     -0.27007215
N       0.02255762      1.17413199     -0.25076684
C      -0.40825996     -0.08684250      0.01742223
C      -1.82337280     -0.41940618      0.08516487
O      -2.70924856      0.39089445     -0.08973004
H       0.78905757     -1.90177262      0.40802227
H       2.85594503     -0.13394050      0.03562985
H      -0.56345209      1.97487558     -0.42337342
H      -2.04492806     -1.47834036      0.31064558
