16
b3lypvtz=-181149.2938333
C       2.31420868      0.04598189     -0.07580763
N       0.87264694      0.04750133     -0.15635789
C       0.17212609      1.20958090      0.04219750
C      -1.17630714      1.24275647      0.12051700
C      -1.89785899      0.00283168     -0.07096110
C      -1.24727536     -1.16721106     -0.10224459
C       0.23075006     -1.22457376      0.18039649
H       2.70680056      1.02087789     -0.36080012
H       2.72740167     -0.70052129     -0.75778169
H       2.67111205     -0.19196128      0.93750961
H       0.76941540      2.11206541      0.06618229
H      -1.69125139      2.18541406      0.21777937
H      -2.96873362      0.03478179     -0.23006577
H      -1.76401461     -2.10125367     -0.27709337
H       0.71145161     -2.01290915     -0.40637098
H       0.42400205     -1.47764719      1.24451588
