14
b3lypvtz=-227002.33425727
C      -1.33141665      1.15111007      0.31070125
N      -0.61751518      0.00075806     -0.22570068
C      -1.28349434     -1.16741505     -0.45119483
O      -0.79656133     -2.18889547     -0.89417090
C       0.76094838      0.18338328     -0.48297083
C       1.62704665     -0.71085556     -0.97202229
O       2.94746586     -0.44761673     -1.18985279
H      -2.37515716      0.88851028      0.46523275
H      -1.28665265      1.99525269     -0.38080703
H      -0.90789980      1.46116976      1.26844108
H      -2.34955410     -1.09039027     -0.18114666
H       1.10504259      1.18135802     -0.23816411
H       1.35627870     -1.71790150     -1.23658407
H       3.15136903      0.46163242     -0.94186091
