18
b3lypvtz=-181882.22067566
C      -1.36582490      1.33666892     -0.04952445
C      -0.43726162      0.14329414     -0.18141984
C      -0.90114710     -1.01492643     -1.02813354
C      -0.86603723     -1.14474913      0.47422431
C       1.01326636      0.52948126     -0.22983774
C       2.12502456     -0.34708243      0.19566493
N       1.76587031      0.83398505      1.00315470
H      -1.23023975      2.03037550     -0.88287021
H      -1.17083491      1.88636746      0.87406152
H      -2.41118889      1.02516289     -0.04177546
H      -1.86480095     -0.93925264     -1.51435232
H      -0.15587309     -1.55876740     -1.59237014
H      -0.12370111     -1.80040999      0.90723314
H      -1.80767362     -1.13833944      1.00651892
H       1.23374118      1.23663717     -1.02486604
H       1.89813085     -1.32938076      0.58991977
H       3.08078087     -0.27946272     -0.30912973
H       1.21776905      0.53039855      1.80350217
