18
b3lypvtz=-181905.69801392
C       2.89863283     -0.62210612     -0.21329621
C       1.83297168     -0.14140023      0.41397894
C       0.52057316      0.20489953     -0.23361977
C       0.20336309      1.69773608     -0.06007331
C      -0.61044241     -0.68484840      0.34050431
C      -1.91350664     -0.53090976     -0.39451100
N      -3.03915414     -0.17728315      0.06507322
H       2.89427048     -0.80652150     -1.28163042
H       3.81548810     -0.84754062      0.31547563
H       1.88417923      0.03172080      1.48706619
H       0.60428329     -0.01070123     -1.30353518
H      -0.75182126      1.95769674     -0.51812044
H       0.14739141      1.96157957      0.99910224
H       0.97958219      2.31267618     -0.51586948
H      -0.75728390     -0.46640107      1.40266088
H      -0.29620210     -1.73064913      0.26367820
H      -1.86989241     -0.75701473     -1.46462025
H      -2.97651058      0.01301705      1.06857444
