17
b3lypvtz=-194354.69714001
C       2.01358794      1.80577289     -0.20269361
C       1.44315511      0.78182025      0.05435647
C       0.75081618     -0.47905282      0.36565543
C       1.50961601     -1.68834311     -0.17353020
O      -0.55718905     -0.52388324     -0.18852661
C      -1.48077532      0.39345579      0.38742093
C      -2.82630248      0.19121836     -0.27867782
H       2.51834174      2.71092347     -0.43272055
H       0.67934517     -0.55898757      1.46015211
H       0.98162792     -2.59982954      0.10455254
H       1.57199249     -1.63384930     -1.25957123
H       2.51874674     -1.71938766      0.23561796
H      -1.12789154      1.42077343      0.24541316
H      -1.55123451      0.21308327      1.46884160
H      -3.56323212      0.87544875      0.14487409
H      -2.75520494      0.38076279     -1.34992655
H      -3.17951333     -0.83018276     -0.13397673
