18
b3lypvtz=-181901.10208433
C      -3.60429444     -0.28062729     -0.28998570
C      -2.45993511     -0.21399485      0.37817928
C      -1.33667408      0.74496427      0.08377420
C      -0.06475049      0.03701620     -0.30239613
C       1.07432177      0.08107935      0.38056671
C       2.33043869     -0.64184673     -0.00193614
N       3.45453018      0.29962671     -0.09563778
H      -3.81693112      0.38394992     -1.11967683
H      -4.37216483     -0.99778293     -0.03094435
H      -2.28350216     -0.90165143      1.20056115
H      -1.64706349      1.41738777     -0.72209952
H      -1.14416056      1.36470533      0.96494136
H      -0.11693298     -0.56641632     -1.20565804
H       1.14310255      0.68791717      1.27967204
H       2.58209448     -1.36144658      0.78400903
H       2.15092602     -1.22238410     -0.91734762
H       3.31766263      0.92747551     -0.87945220
H       4.32139895     -0.19755898     -0.26188646
