10
b3lypvtz=-228082.90039436
N       3.43893821     -0.27461919      0.02144599
C       2.33082716      0.04429163      0.02152994
C       0.97610748      0.47225290      0.02428755
C      -0.05137473     -0.37810439     -0.05717321
C      -1.46510221      0.03732612     -0.05664479
N      -2.01697145      1.15796873      0.01183868
F      -2.26024209     -1.04628742     -0.15020196
H       0.82245344      1.54290322      0.09723854
H       0.12612197     -1.44265240     -0.12920626
H      -1.34730478      1.91851280      0.07994452
