16
b3lypvtz=-204442.54220958
C       0.03443538      1.74268736     -0.00244475
C      -0.41589698      0.49781610      0.22787008
C       0.44356825     -0.65740926      0.50669689
C       1.73022027     -0.84215832      0.19948109
O       2.50072987      0.06873836     -0.46025414
N      -1.79738398      0.22110351      0.31850669
C      -2.35472031     -0.85344043     -0.49933784
H      -0.65587803      2.54880199     -0.21757663
H       1.08319109      1.98102682      0.05117514
H      -0.01994373     -1.47483242      1.04298297
H       2.23069702     -1.76081444      0.48444398
H       3.36801574     -0.30817859     -0.62898824
H      -2.33354709      1.07095720      0.21367734
H      -1.87656847     -1.80114481     -0.25689019
H      -2.23905346     -0.68660944     -1.57869077
H      -3.41674358     -0.95282362     -0.27515863
