15
b3lypvtz=-214517.00132863
C      -1.23062446      0.75648013      0.29699827
C      -0.09117863     -0.21325241     -0.00877377
N      -0.36375742     -1.14555443     -1.09734501
C       0.56920599     -0.86162938      1.23236849
O       1.79656081     -0.09949304      0.98799357
C       1.28159563      0.45845612     -0.14846573
N       1.89419305      1.23890721     -0.91311934
H      -1.45520953      1.36719765     -0.57922915
H      -0.98485518      1.42420407      1.12386288
H      -2.13447605      0.20307032      0.56419661
H      -0.14316319     -0.72605682     -1.99271332
H      -1.34396810     -1.40258008     -1.11923838
H       0.14829844     -0.60995474      2.20487493
H       0.74978951     -1.92944969      1.13562107
H       1.30768915      1.53965507     -1.68713113
