15
b3lypvtz=-216931.72601954
C       2.72403786      0.22340265      0.02392629
C       1.48154129      0.58328548     -0.28541603
C       0.32595642     -0.31697020     -0.04676613
O       0.44832916     -1.44196757      0.40216691
C      -1.06667490      0.19934820     -0.39607672
C      -1.46010432      1.40003649      0.47385491
O      -2.01087958     -0.83284713     -0.25726701
H       3.56699697      0.87639528     -0.15684903
H       2.91796399     -0.74459093      0.46806288
H       1.27840316      1.54884323     -0.73202796
H      -1.03334639      0.52324145     -1.44704470
H      -2.47364263      1.70224346      0.21362715
H      -1.44639003      1.12049491      1.52778476
H      -0.79713898      2.25308677      0.32508495
H      -1.52064602     -1.59497607      0.09102873
