13
b3lypvtz=-216149.60202654
C      -1.50043982     -0.14073465     -0.57231128
C      -0.79583241      0.55951494      0.58155355
C      -0.60541193     -0.92064060      0.33947660
O       0.74916158     -1.13082286     -0.05880495
C       1.33641260      0.10627516     -0.09375287
C       0.55165387      1.11919699      0.28543591
O       2.60619375      0.10875416     -0.52502439
H      -1.16393473      0.07504714     -1.57723150
H      -2.55836083     -0.34212481     -0.46812334
H      -1.38184820      0.93955639      1.40753215
H      -0.97477943     -1.72021116      0.96283011
H       0.84242954      2.15302191      0.33940105
H       2.89475599     -0.80683263     -0.62098104
