8
b3lypvtz=-330564.96897025
C      -0.54948935      0.56046967     -0.35905869
O      -0.52707851      1.44092175     -1.15919594
C       0.75039590     -0.21864128     -0.00271773
F       1.66773256      0.61008824      0.49420102
F       0.51174598     -1.17979732      0.92710058
F       1.24718632     -0.81419847     -1.08610395
O      -1.65045855      0.16504817      0.29096854
H      -1.45003437     -0.56389077      0.89480616
