18
b3lypvtz=-181901.99364351
C      -3.24887634      0.37944300      0.00004285
C      -2.43195888     -0.66757053     -0.00017547
C      -0.93079262     -0.65897538     -0.00013756
C      -0.27729436      0.71624811      0.00017074
C       1.22424848      0.70023137      0.00023438
N       1.90632699     -0.36066630     -0.00013793
C       3.36185636     -0.24143830     -0.00009092
H      -4.32297259      0.24895843     -0.00001093
H      -2.88952138      1.40055190      0.00028254
H      -2.87341506     -1.66067626     -0.00041055
H      -0.57192769     -1.22888941     -0.86260429
H      -0.57197392     -1.22923868      0.86211979
H      -0.60534916      1.29908957     -0.86872522
H      -0.60540237      1.29871207      0.86929891
H       1.69844447      1.69493470      0.00063093
H       3.72045890      0.29008023     -0.88650180
H       3.80831103     -1.23423026      0.00158620
H       3.72040413      0.29322774      0.88446333
