14
b3lypvtz=-203696.66446901
C      -1.01542103      1.39203969     -1.33612229
C      -1.18316049      0.30383951     -0.59099778
C      -0.13735144     -0.69251576     -0.28998527
N      -0.56802416     -1.99154447     -0.42282615
C       1.12180504     -0.40188217      0.13955700
C       1.60224931      0.89881819      0.55214750
O       2.75125745      1.11939340      0.89454292
H      -1.83854498      2.06811460     -1.52514273
H      -0.06278816      1.63525155     -1.78662441
H      -2.16833138      0.07090871     -0.19764500
H       0.11899771     -2.72251592     -0.33818907
H      -1.30777901     -2.17970837     -1.07844131
H       1.83278578     -1.21260987      0.26150387
H       0.85410536      1.71231090      0.56812273
