15
b3lypvtz=-193583.74154807
C      -3.44073810      0.89434912      0.02532711
C      -2.54520398      0.10147834      0.11769145
C      -1.44919814     -0.86372853      0.21390068
C      -0.19481415     -0.41171968     -0.48840317
C       0.96925551     -0.27825665      0.13636371
O       2.11175634      0.06775563     -0.51428981
C       3.18603150      0.48313988      0.31807217
H      -4.23098319      1.59810655     -0.05321906
H      -1.23443849     -1.05911155      1.26835929
H      -1.79358894     -1.81573585     -0.20602433
H      -0.25905061     -0.19684682     -1.54788747
H       1.07440749     -0.46542664      1.20304250
H       3.42928997     -0.28190792      1.06194149
H       4.04477674      0.63404691     -0.33131334
H       2.95194404      1.42112421      0.82953878
