16
b3lypvtz=-232770.02597765
C      -1.65567172      1.38262592     -0.21246907
C      -0.43402390      0.48285761     -0.42361053
C      -0.83832236     -0.98033436     -0.53971617
F      -1.42307620     -1.41878509      0.65870937
C       0.60726599      0.68858602      0.68117878
C       1.98634639      0.15824825      0.38982759
O       2.32989257     -0.36179744     -0.64189341
H      -2.16391321      1.13976959      0.72153344
H      -2.37491904      1.26055860     -1.02420223
H      -1.36732590      2.43429585     -0.17810212
H       0.03497809      0.73464047     -1.37958763
H       0.02084723     -1.61994750     -0.73633169
H      -1.58138493     -1.11702852     -1.32790521
H       0.73209922      1.75544347      0.90478019
H       0.27145723      0.24350431      1.62450265
H       2.71373953      0.29063082      1.21830305
