13
b3lypvtz=-239677.82071035
C      -1.84300708     -0.58879694     -0.30812787
N      -0.43136171     -0.74670851     -0.01967614
C       0.27849236      0.30596882      0.07468913
N      -0.12572038      1.60770602     -0.09731026
N       1.66397998      0.24830789      0.38375224
C       2.28978890     -0.76897612      0.02548863
F       3.58110840     -0.89546002      0.33139389
H      -2.32270685     -1.56603229     -0.30748050
H      -2.02019642     -0.12981193     -1.28954766
H      -2.35886083      0.02766949      0.44250621
H      -1.10907085      1.81193866     -0.07209418
H       0.48842192      2.31686965      0.26437807
H       1.90913258     -1.62267475     -0.52740611
