15
b3lypvtz=-214516.59184104
C      -3.41058365      0.09636834     -0.07626080
N      -2.07837360     -0.44276130     -0.26219815
C      -1.11044790      0.14083208      0.29299743
C       0.28546190     -0.39343047      0.17607186
O       1.15351583      0.71824004     -0.06907124
C       2.48697964      0.47644984     -0.13622525
N       3.13032892     -0.60151174     -0.03136597
H      -4.04092026     -0.66537892      0.38655164
H      -3.84336178      0.31348794     -1.05443161
H      -3.43712446      1.00487901      0.53894130
H      -1.22417889      1.04903072      0.90022630
H       0.57714087     -0.88301199      1.11331348
H       0.33649557     -1.12231558     -0.63420767
H       3.00418466      1.41584518     -0.31049221
H       2.54291416     -1.41781615      0.12285290
