11
b3lypvtz=-264632.74056026
N      -2.55233050     -0.71470267     -0.00000976
C      -1.51157891      0.14991379      0.00002392
O      -1.58168318      1.35220242      0.00000067
O      -0.33453124     -0.56388932      0.00000919
C       0.83187672      0.16857702      0.00000867
C       1.98902130     -0.47005137     -0.00000367
F       3.14650274      0.21943760     -0.00000856
H      -2.40377627     -1.70650227      0.00000371
H      -3.48211796     -0.34021075     -0.00001595
H       0.72760453      1.24273859      0.00001494
H       2.11875777     -1.54238604     -0.00001116
