13
b3lypvtz=-218722.40117947
C      -2.18906093     -0.48049441      0.50617503
C      -1.29952593     -0.06653239     -0.61877685
N      -2.17686986      0.91319605      0.06601499
C       0.12036924     -0.02340347     -0.42197241
C       1.31286958      0.02724952     -0.26814469
C       2.75229164      0.09671350     -0.09472685
F       3.22031729     -0.91707975      0.74464456
H      -1.71440775     -0.74060063      1.44344302
H      -3.09466536     -1.02725876      0.27650134
H      -1.62029472     -0.29504508     -1.62797224
H      -1.61598702      1.47320508      0.70042888
H       3.26044115     -0.01089509     -1.05602171
H       3.04452265      1.05094544      0.35040694
