10
b3lypvtz=-220624.93108911
N       0.89528219      0.07120620      0.00165038
N       0.36556838      1.18343272     -0.00762615
N      -1.02127899      1.14122100     -0.04114244
C      -1.77924367      2.27266820     -0.05587558
C      -3.05789117      1.80657619     -0.08814168
N      -3.02201857      0.43434184     -0.09133142
N      -1.79948715      0.02534702     -0.06383499
H       1.90340214      0.25708625      0.02656899
H      -1.33767789      3.25145407     -0.04217657
H      -3.98825527      2.34496651     -0.10899052
