12
b3lypvtz=-202902.93399803
C      -2.31726163     -0.01532548      0.00005231
C      -0.97964919      0.03435273      0.00001850
C      -0.20030177      1.24953760     -0.00001757
C       1.13723806      1.18849432     -0.00000064
C       1.75062714     -0.12106459      0.00005578
N       1.11436596     -1.23166418      0.00005764
O      -0.28292377     -1.17125157      0.00000573
H      -2.84527110     -0.95643355      0.00008211
H      -2.88533121      0.90189301      0.00003634
H      -0.73766429      2.18788633     -0.00004833
H       1.75991494      2.07113797     -0.00001965
H       2.82766285     -0.23611059      0.00009579
