17
b3lypvtz=-215289.07514244
C       2.45326191     -0.43101774      0.55638213
C       1.42866765     -0.36249152     -0.58676424
C       0.15958624      0.34513144     -0.22883841
O       0.27973506      1.73001919     -0.00960055
C      -1.04956814     -0.20139266     -0.01776857
N      -2.20959280      0.56484095      0.16633605
N      -1.31273793     -1.58021116      0.07406874
H       3.39044931     -0.88081144      0.22196964
H       2.67071895      0.56875302      0.93270310
H       2.06786172     -1.02201796      1.38871169
H       1.20843490     -1.36958464     -0.94900290
H       1.89202759      0.15402345     -1.43931754
H       0.61489111      2.14194219     -0.81406782
H      -2.74462172      0.25199195      0.96649076
H      -1.98766684      1.54671766      0.24791399
H      -2.08529145     -1.85598107     -0.51982795
H      -0.50824958     -2.16171667     -0.10004412
