15
b3lypvtz=-214531.10914095
C      -1.86146486     -1.32993623     -0.05137099
C      -1.51611577      0.13531094     -0.01381787
N      -2.17665150      1.07185174     -0.55964828
C      -0.27806599      0.52211113      0.77709370
N       0.88722052     -0.24741588      0.36611079
C       1.89694917      0.38315096     -0.03868664
O       3.02685878     -0.22842315     -0.44302868
H      -1.01272085     -1.90970758     -0.41490582
H      -2.72849678     -1.51560439     -0.68455419
H      -2.07842180     -1.69225502      0.95738417
H      -2.99931035      0.70508826     -1.04141193
H      -0.47095208      0.30106615      1.83342738
H      -0.14185486      1.60291762      0.67581376
H       1.99151877      1.46794102     -0.11027430
H       2.88221860     -1.18209256     -0.35306110
