17
b3lypvtz=-191960.13758527
C       2.90312414      0.51583271      0.87125772
C       1.65772404      0.65239833      0.43255323
C       1.06164988     -0.10316648     -0.71818862
C      -0.09738439     -1.05209878     -0.32766852
C      -1.29613222     -0.36318727      0.24731917
N      -2.40171051     -0.34438468     -0.37985282
N      -3.49143926      0.23725323      0.22599560
H       3.27706370      1.08879568      1.70976287
H       3.59722229     -0.17307366      0.40310751
H       1.00573090      1.36191780      0.93456481
H       0.68367642      0.60430351     -1.46330724
H       1.84211595     -0.69247273     -1.20489726
H      -0.42144040     -1.60133991     -1.21214843
H       0.28298126     -1.78163632      0.39477539
H      -1.19858128      0.11738058      1.22828255
H      -3.26550102      0.96984547      0.89491536
H      -4.13919950      0.56353252     -0.47457134
