10
b3lypvtz=-248780.81667494
N       2.52483756     -1.59058053      0.24911506
C       1.79630194     -0.72053681      0.05672679
C       0.84974439      0.38257897     -0.13972400
O       1.22264521      1.51240203     -0.31166803
C      -0.64013158     -0.00075058     -0.13692438
O      -1.43959817      1.12568378     -0.08003089
O      -0.78442703     -0.76187738     -1.31474117
H      -0.86772024     -0.59988562      0.75088854
H      -1.00979069      1.83384502     -0.58116404
H      -1.65186141     -1.18097887     -1.30847788
