17
b3lypvtz=-215267.99275685
C      -2.97363874      0.66992330     -0.05323371
C      -1.94227278     -0.40469806      0.04377414
N      -0.69787394     -0.14146650      0.04496451
N       0.20649149     -1.16091683      0.21402339
C       1.52963803     -0.89897470     -0.35407453
C       2.20277477      0.30913775      0.28664754
O       1.63706288      1.54336299     -0.11859793
H      -3.61599359      0.67635739      0.83202800
H      -3.62603748      0.50964018     -0.91582505
H      -2.50056940      1.64568354     -0.14771826
H      -2.29049803     -1.44059590      0.13001773
H      -0.16368153     -2.07369562     -0.04019236
H       2.12929650     -1.78976305     -0.15504468
H       1.49070439     -0.74854020     -1.44093431
H       3.25091162      0.33176662     -0.01824426
H       2.17167729      0.19297224      1.37785793
H       0.67822353      1.44074385     -0.03189915
