14
b3lypvtz=-203679.18040472
C      -0.02803568     -1.13889642     -0.87906342
C      -0.61266140     -0.76272454      0.48294375
C       0.68843900     -0.15835923     -0.03071613
C       0.35743081      1.31642050     -0.25722388
N      -1.06720689      1.50380911      0.05982674
C      -1.54199283      0.39374884      0.46960643
O       1.95523695     -0.51970488      0.42671779
H       0.41502051     -2.12370521     -0.93303866
H      -0.53664636     -0.80533835     -1.77466949
H      -0.66068422     -1.52568766      1.24716091
H       0.55114655      1.63853969     -1.28208264
H       0.95494318      1.96136930      0.39600154
H      -2.57826032      0.32595422      0.79029826
H       2.10327072     -0.10542536      1.28423881
