13
b3lypvtz=-213768.35243092
N      -2.29959117      0.05416844     -0.08056974
C      -0.91848215      0.13478880     -0.00500764
C      -0.14867132      1.22075643      0.03494695
C       1.34958361      1.10152816     -0.01827187
N       1.82314810     -0.28233806      0.02602803
C       0.99072250     -1.21719971      0.01402759
O      -0.38426208     -1.14079383     -0.03803985
H      -2.68216030     -0.73949173      0.41365727
H      -2.77092545      0.91310702      0.15655308
H      -0.60774109      2.19860648      0.08735140
H       1.76387491      1.55907796     -0.92503396
H       1.82149802      1.63521956      0.81372355
H       1.29201942     -2.25828152      0.04111420
