16
b3lypvtz=-202048.32606567
C       3.28043192     -0.63873298     -0.05009658
N       2.48368644      0.33715868     -0.04807110
C       1.16657517      0.15371753      0.53326679
C       0.07854761      0.52939924     -0.47873683
N      -1.22485186      0.51851662      0.15057466
C      -2.11173563     -0.25088909     -0.32211256
N      -3.35483805     -0.39735428      0.24335032
H       3.03208875     -1.62242210      0.36989948
H       4.27202179     -0.52108221     -0.48265696
H       1.00518171     -0.87181122      0.89591974
H       1.07488394      0.82939182      1.38706521
H       0.13684414     -0.14938450     -1.34346247
H       0.29546987      1.53728080     -0.84186632
H      -1.94893439     -0.89441675     -1.19606783
H      -4.10067780     -0.71425961     -0.35153517
H      -3.61014160      0.30209304      0.92302163
