18
b3lypvtz=-202810.43037292
C      -1.61586741     -0.29034204      1.19173054
C      -1.55780332      0.36624831      0.02023313
N      -2.55459535      1.26104510     -0.41041925
N      -0.54152086      0.27410347     -0.92261778
C       0.66198326     -0.50575784     -0.69856806
C       1.72688647      0.16702810      0.18588028
N       2.92950963     -0.62976510      0.42244649
H      -2.51755186     -0.26330599      1.78459809
H      -0.78258777     -0.85232785      1.57963339
H      -2.87577556      1.06563037     -1.35009423
H      -3.33353632      1.31132353      0.22840749
H      -0.39872137      1.13749809     -1.42574182
H       0.36917576     -1.46198696     -0.26038998
H       1.10407379     -0.73112306     -1.67402363
H       2.03007877      1.10978908     -0.27861620
H       1.28997941      0.42669493      1.15086918
H       3.36501397     -0.89623486     -0.45331617
H       2.70135875     -1.48841725      0.90988854
