13
b3lypvtz=-213743.96574359
C       1.36543636     -1.65529735     -0.00000743
C       0.20792376     -0.71688175      0.00001114
N      -1.02641177     -1.12832414      0.00014259
O      -1.80421069      0.00007216     -0.00029840
N      -1.02632179      1.12840641      0.00014999
C       0.20798094      0.71686562      0.00001604
C       1.36556799      1.65518956     -0.00000009
H       1.99302059     -1.50242524     -0.87993951
H       1.01266176     -2.68411826      0.00003293
H       1.99305616     -1.50236984      0.87988896
H       1.99311796      1.50229774     -0.87995333
H       1.99319804      1.50218275      0.87987502
H       1.01287470      2.68403835      0.00008310
