13
b3lypvtz=-213749.83723679
C      -1.88084111      0.39083680      0.31286757
N      -0.71670070     -0.43990926      0.06979776
C       0.30836785     -0.02898535     -0.55454291
C       0.53562262      1.33258175     -1.16604159
O      -0.07476222      2.32519527     -0.85818563
N       1.38148308     -0.90428633     -0.84461982
C       1.77245715     -1.70442630      0.05284812
H      -2.09702121      1.10145105     -0.48580864
H      -1.72765574      0.97364342      1.22570116
H      -2.73828269     -0.26154928      0.47360736
H       1.33400860      1.34964807     -1.93035449
H       2.56059449     -2.41571265     -0.17953732
H       1.34282989     -1.71838719      1.05756843
