11
b3lypvtz=-233881.86594444455
C       1.38105019     -0.52523667      0.35619575
N       1.96474561      0.61838578      0.29313442
N       2.53208464      1.60939849      0.25041676
N       0.00126442     -0.75778369      0.13072981
C      -1.00796511      0.11413972     -0.18567298
N      -2.24039120     -0.14105709     -0.37906201
O      -0.55491397      1.38396710     -0.28674208
H       1.99135752     -1.37626719      0.60070584
H      -0.26957250     -1.71949730      0.22007061
H      -2.46871341     -1.12378604     -0.27781165
H      -1.32894617      1.91773688     -0.50969709
