19
b3lypvtz=-195145.0555194
C      -2.39118352     -1.09552418     -0.09988233
C      -1.23043213     -0.13954011     -0.01519008
C      -0.01832872     -0.56583949      0.34951335
C       1.24759915      0.22852002      0.48830226
C       2.28756545     -0.15527607     -0.55920998
O       3.47931578      0.57950027     -0.28610815
C      -1.57286927      1.28389368     -0.36330379
H      -2.82244159     -1.10082823     -1.10570481
H      -2.09689477     -2.11436747      0.14985243
H      -3.19514100     -0.79616570      0.57978800
H       0.08630847     -1.62581495      0.56928394
H       1.69019874      0.04641237      1.47265221
H       1.06872037      1.30110589      0.42082817
H       2.47675801     -1.23528773     -0.51676213
H       1.90385701      0.07517730     -1.56020163
H       4.14177694      0.34900623     -0.94313318
H      -1.97239560      1.34240968     -1.38030573
H      -0.72421089      1.96030909     -0.29794656
H      -2.35820242      1.66230942      0.29817791
