14
b3lypvtz=-203696.26883056
C      -0.42938416     -1.21609056     -0.03563382
C      -1.69628430     -0.48848579      0.33286631
C      -1.45396273      0.82852850      0.42175717
C      -0.04223261      1.06133500      0.12569163
C       0.58050734     -0.10372305     -0.14430172
N       1.96728205     -0.16779712     -0.46648043
O       0.50920435      2.29583044      0.13602792
H      -0.16083106     -1.95804278      0.72677628
H      -0.54923585     -1.77252459     -0.97366394
H      -2.64426858     -0.97867530      0.49371571
H      -2.15825449      1.60929898      0.66722751
H       2.49708361     -0.72362861      0.19584361
H       2.13695509     -0.55604890     -1.38771808
H       1.44342134      2.17002381     -0.09210814
