12
b3lypvtz=-200506.52664752
C       1.94358872     -0.83666468     -0.00011418
C       0.65004750     -0.50288725      0.00000810
N      -0.38807062     -1.47619539     -0.00019765
N      -1.50583193     -0.89648260      0.00000217
N      -1.34472264      0.45264729     -0.00023480
H      -2.15810919      1.04089667      0.00032332
C      -0.00446584      0.81937637     -0.00005777
C       0.49576314      2.06102147      0.00011503
H       2.22825334     -1.87839302     -0.00018029
H       2.72356642     -0.08946005     -0.00016496
H      -0.14194973      2.93313012      0.00009645
H       1.56266683      2.22199608      0.00027659
