16
b3lypvtz=-204413.30303541
C      -1.89799818      0.20364021     -0.93380830
C      -0.68528335     -0.09614825     -0.08229989
O      -0.99633159     -0.62041141      1.18425195
C       0.49818977      0.81778977     -0.28023845
C       1.65979068      0.38619494      0.61746046
N       1.55495434     -1.03648604      0.14664239
C       0.50148227     -0.63772446     -0.79872049
H      -2.52396465     -0.68570214     -1.01674012
H      -2.49712259      1.00147745     -0.48666799
H      -1.61501052      0.52431766     -1.93764033
H      -1.37785108      0.08652000      1.71616518
H       0.41926956      1.76602443     -0.79566350
H       1.51705803      0.49857087      1.69373060
H       2.59974205      0.85488987      0.32565900
H       2.39454302     -1.29493123     -0.35604523
H       0.44339524     -1.04393567     -1.80064529
