18
b3lypvtz=-181912.35051168
C       2.10984212     -1.25375603      0.24484163
C       1.58268120     -0.05937043     -0.03834630
C       2.33943832      1.23397312      0.06574981
N       0.28467311      0.09024541     -0.55948875
C      -0.71557247     -0.37572751      0.06152933
C      -2.11012271     -0.29714061     -0.47690600
C      -3.06266020      0.44716508      0.46815915
H       3.13494654     -1.34487870      0.57480036
H       1.54619635     -2.16553855      0.10279480
H       2.36869744      1.73077453     -0.90600163
H       1.83999119      1.91772590      0.75715120
H       3.35804082      1.07017918      0.41270748
H      -0.59396324     -0.85533362      1.04298917
H      -2.47801561     -1.31950452     -0.62020573
H      -2.07839350      0.18006207     -1.45626471
H      -2.75236475      1.48496111      0.59704254
H      -4.07853025      0.44546199      0.07219888
H      -3.08943736     -0.01966841      1.45483477
