17
b3lypvtz=-191885.34901697
C       0.51450984     -0.45546898      0.47554785
C       0.59247765     -0.61241875      1.99090980
C       0.09619449      0.74370610      2.63471414
N      -1.30542976      0.09987047      2.55279048
C      -0.53744912     -1.18867833      2.73493603
C      -0.03290669     -2.60037752      2.27768205
N       1.36609352     -1.94897233      2.23380633
H      -0.33005141      0.16578953      0.18243311
H       0.44674341     -1.40966900     -0.04283706
H       1.43678008      0.02728747      0.14181982
H       0.42425583      0.90407654      3.66445865
H       0.19968856      1.65348006      2.04438982
H      -1.89695136      0.33313005      3.34619877
H      -0.24381112     -1.20523953      3.79562373
H      -0.31309327     -2.91824186      1.27825937
H      -0.13161914     -3.42540253      2.98164407
H       1.73236850     -1.96857139      3.18372302
