15
b3lypvtz=-240225.94825287
O      -3.08986489      0.14779398      0.68454240
C      -2.55530679     -0.89821826      0.41507962
C      -1.09579623     -1.05824011      0.09357371
C      -0.30703708      0.23643710      0.12680933
O       1.04157207     -0.07119227     -0.18696548
C       1.88382018      1.06531337     -0.18832536
O       3.19122884      0.66987809     -0.44165198
H      -3.14200536     -1.84012088      0.38996457
H      -1.01482432     -1.53262824     -0.89088024
H      -0.67222769     -1.78545300      0.79573011
H      -0.38035897      0.70210938      1.11700150
H      -0.72112153      0.95017210     -0.59498785
H       1.60461228      1.75194830     -0.99472111
H       1.78650355      1.58486730      0.77813879
H       3.47080592      0.07713312      0.26449200
