11
b3lypvtz=-236313.87859666
N      -0.09998137      0.48950059     -1.99151047
C      -0.42682096      0.35800359     -0.77232022
C      -1.69815993      0.96510706     -0.20695819
O      -2.46214227      1.60224572     -0.88322973
N       0.30822018     -0.34070261      0.19920368
C       1.39695169     -0.89730115     -0.14785622
O       2.14337555     -1.57491820      0.71918425
H      -0.81429704      1.04342732     -2.46859864
H      -1.86939262      0.77917021      0.86804641
H       1.82396508     -0.88437534     -1.14755328
H       1.69828169     -1.54015719      1.58119242
