16
b3lypvtz=-202058.84317466
C       3.28730101      0.21228475     -0.04715020
N       2.07888978     -0.56810882      0.07935406
C       0.96076765      0.03557404     -0.02611640
C      -0.30873243     -0.63307545      0.05550261
C      -1.52199361     -0.02216555      0.01255685
N      -2.70980191     -0.72609843     -0.13054738
N      -1.74188643      1.34520321      0.10835176
H       3.89050347     -0.16961463     -0.87569115
H       3.89445742      0.10392986      0.85597460
H       3.10647545      1.28513118     -0.21688202
H       0.94597286      1.12480047     -0.20545180
H      -0.27945101     -1.71044599      0.15131063
H      -2.60677873     -1.72802086     -0.11268365
H      -3.46238020     -0.40198393      0.46003555
H      -0.91156235      1.91262896      0.14672244
H      -2.42459194      1.70158617     -0.54515092
