14
b3lypvtz=-180296.643354
C      -1.88574694     -0.09736001     -0.09844767
C      -0.39971637      0.00540043     -0.09122785
C       0.52765725      1.18185579      0.05067664
C       0.58457422      0.08422164      1.08382358
C       1.66212759     -0.58971926      0.20545130
C       0.71693190     -0.67228202     -0.93445248
N       1.61566690      0.52789856     -0.79985200
H      -2.29973493      0.18552378     -1.06963115
H      -2.21826572     -1.11391752      0.12627007
H      -2.31983359      0.56617454      0.65271036
H       0.35499706      2.24609062      0.12677411
H       0.38237723      0.10007132      2.14342373
H       2.57053130     -1.13248035      0.42592746
H       0.70823411     -1.29127751     -1.82144609
