10
b3lypvtz=-243893.77043872
C      -0.21976450     -0.90756731     -0.08795296
N      -0.86817150      0.18537447     -0.07964633
N      -2.26769416     -0.10746073     -0.15196632
N      -2.98299351      0.88919089     -0.15016096
O       1.11496158     -1.03053955     -0.03274906
N       1.82490159      0.24302196      0.04330824
N       3.00499765     -0.01949568      0.08601828
H      -0.68961016     -1.88707765     -0.14220574
H      -2.39884568      1.74620760     -0.09532883
H       3.48221867      0.88834602      0.13915153
