16
b3lypvtz=-227748.15419167
O      -1.40374179      0.49666464     -1.40977095
C      -1.38209573      0.61314254     -0.01688111
O      -2.42800816     -0.13268879      0.58964981
C      -0.08094678      0.06626321      0.55790156
C       1.24740319      0.74507109      0.15264845
C       1.76921585     -0.67733395     -0.15381110
N       0.36596602     -1.16412359     -0.14503850
H      -0.94592951     -0.34376729     -1.59299264
H      -1.49337414      1.67946613      0.20939250
H      -3.23200845      0.05336685      0.09299517
H      -0.18595699     -0.04986804      1.63951430
H       1.76751914      1.30897260      0.92266646
H       1.13905940      1.35592374     -0.74137561
H       2.29249673     -0.83163981     -1.09823073
H       2.37956272     -1.08164776      0.65918784
H       0.19103851     -2.03770157      0.33404456
