15
b3lypvtz=-216933.81576414
O      -1.48511718      0.75644720      1.00243847
C      -0.87086556      0.05244831     -0.07417867
O      -1.87319536     -0.50367166     -0.90405148
C       0.02347423      0.93953417     -0.90533971
C       1.30563472      0.73642743     -0.63133201
C       1.51037313     -0.34427152      0.39923722
C       0.10637135     -0.97283420      0.53874304
H      -2.00599852      1.47415261      0.62301304
H      -2.45966507     -1.02116251     -0.33947290
H      -0.38381145      1.66573631     -1.59579663
H       2.12767130      1.29044548     -1.06554357
H       2.26428575     -1.07301364      0.09389779
H       1.86000686      0.08770445      1.34177642
H       0.04645548     -1.88662259     -0.05098599
H      -0.16561969     -1.20121985      1.56779497
