17
b3lypvtz=-171060.83793973
C      -3.30608568      0.26731476      0.56148460
C      -2.49540058     -0.26398474     -0.35679784
C      -1.07788248     -0.17710557     -0.34310039
C       0.12694342     -0.12777505     -0.37412314
C       1.58797850     -0.05632462     -0.37873930
C       2.19792136     -1.11122761      0.56251403
C       2.07668570      1.35981312     -0.02613358
H      -4.37885338      0.15869252      0.48235015
H      -2.92032569      0.81945988      1.40788224
H      -2.92851552     -0.81032194     -1.18965792
H       1.92474882     -0.28330917     -1.39614450
H       3.28752841     -1.07412275      0.51286407
H       1.87423196     -2.11527451      0.28988276
H       1.89460963     -0.92597806      1.59386151
H       1.66431594      2.09981379     -0.71150804
H       1.77215209      1.62901000      0.98623171
H       3.16564951      1.40709595     -0.08111436
