10
b3lypvtz=-251353.9626649
C       0.71489262     -0.50628116      0.06742792
C      -0.40718144      0.21515851     -0.05611384
N      -1.56689233     -0.36384913     -0.59537139
N      -2.54372568      0.40603888     -0.65920364
F      -0.46811281      1.49046733      0.32116547
C       1.96919712      0.01830519      0.61807266
O       2.96896689     -0.65705448      0.71749793
H       0.68953958     -1.53521642     -0.25939477
H      -3.31317596     -0.14080321     -1.06775131
H       1.95649200      1.07323450      0.94158467
