17
b3lypvtz=-194385.94965322
C      -1.72053937      1.50239238      0.12765287
C      -1.09367593      0.33572399     -0.00058334
C      -1.75784318     -0.96981511      0.34468341
C       0.32296745      0.26349631     -0.51983887
C       1.34902703     -0.18978758      0.54050607
C       2.72589293     -0.33711405     -0.05081992
O       3.71459620      0.21983923      0.35059672
H      -2.73740477      1.56334586      0.49402790
H      -1.23870242      2.43671308     -0.13167665
H      -1.76834087     -1.64146893     -0.51889302
H      -1.22806415     -1.49530473      1.14352392
H      -2.78568635     -0.81868549      0.67111328
H       0.36104603     -0.43290645     -1.36530809
H       0.61869273      1.24189283     -0.90177230
H       1.39279980      0.51220671      1.37280944
H       1.06175220     -1.17100266      0.93397552
H       2.78328269     -1.01942540     -0.92799692
