11
b3lypvtz=-236335.63862346
C      -0.08514138      1.00148939     -0.11566595
C       0.65737586     -0.11486218     -0.10635121
O      -0.14590687     -1.21292726      0.08478632
C      -1.47349703     -0.78298962      0.19881336
O      -2.40015108     -1.52383259      0.38253881
N      -1.41843227      0.56993492      0.06216222
N       1.99100175     -0.39514787     -0.33081228
H       0.18559577      2.03214830     -0.23927051
H      -2.23948535      1.14471076      0.09430012
H       2.34339939     -1.13773895      0.25843858
H       2.58524121      0.41921508     -0.28893945
