14
b3lypvtz=-229597.03067332
C       3.10533914     -0.28002777      0.00316237
N       1.68357355     -0.53769906     -0.00848853
C       0.89476054      0.45764314      0.00574457
C      -0.54810248      0.33899435      0.00459232
F      -1.21075955      1.54139922      0.00071956
C      -1.28094510     -0.78331648      0.00802119
N      -2.64981603     -0.83378636     -0.05780128
H       3.56678177     -0.73329797     -0.87798828
H       3.35876099      0.78924783      0.02080256
H       3.55755744     -0.75975452      0.87512730
H       1.25662383      1.49538279      0.02334075
H      -0.74697241     -1.72252886      0.01488065
H      -3.14523714      0.02202004      0.13300210
H      -3.09691555     -1.66300536      0.29187173
