16
b3lypvtz=-225366.77308261
N       0.37600654     -1.74341013      0.35526102
C       0.85288428     -0.62631638      0.00067502
O       2.17233222     -0.36942658     -0.11850594
C      -0.04222372      0.55679372     -0.37569242
N       0.72498319      1.79446039     -0.14664553
C      -1.41436597      0.52413630      0.30615869
N      -2.25236902     -0.53381230     -0.24929228
H       1.12030959     -2.41469302      0.53642634
H       2.23162124      0.59674106     -0.27500048
H      -0.21157736      0.47723192     -1.45335614
H       0.63944943      2.10084724      0.81678380
H       0.38815448      2.54517738     -0.73443845
H      -1.89898857      1.48436902      0.11065534
H      -1.25605797      0.45371868      1.39377873
H      -3.17549611     -0.50480276      0.16593628
H      -1.83183423     -1.42830055     -0.01789598
