12
b3lypvtz=-200568.7671034
C      -0.04650282     -1.02926609     -0.23161990
C      -1.39438900     -0.94061871      0.03623969
N      -2.00171740      0.20356831      0.38351119
C      -1.20143182      1.26187720      0.45522079
N       0.10826758      1.30809367      0.22703369
C       0.69833821      0.15803169     -0.12288128
N       2.03315790      0.21051647     -0.39633471
H       0.41339268     -1.96639757     -0.51471964
H      -2.02511511     -1.82082124     -0.02812258
H      -1.66543774      2.20165660      0.73605147
H       2.56837931     -0.63845954     -0.41966487
H       2.51305821      1.05181921     -0.12471387
