13
b3lypvtz=-216153.03303499
C      -3.41367557      0.63800492      0.00001927
C      -2.40780892     -0.01458676     -0.00006497
C      -1.17172531     -0.78686744     -0.00003879
C       0.05736735      0.11663638     -0.00000294
O       1.21101146     -0.75409048      0.00003545
C       2.40854567     -0.15072165      0.00003014
O       2.60060423      1.03241490     -0.00000390
H      -4.30766547      1.21012626     -0.00005650
H      -1.13996677     -1.43780205      0.87716032
H      -1.13991482     -1.43779819     -0.87723902
H       0.08602470      0.75460416      0.88231135
H       0.08608013      0.75460105     -0.88231740
H       3.19405434     -0.91716209      0.00006200
