12
b3lypvtz=-247093.6594625
C      -1.19934108      0.67375835      0.21143483
C      -0.18623450     -0.23280932     -0.46394661
N      -0.39827727     -1.37419910     -0.95412149
N       1.07861126      0.41585917     -0.60456958
N       2.02193042     -0.25119398     -0.20431656
O       3.20623927      0.43805863     -0.42611843
O      -2.45474958      0.04961468      0.38573937
H      -0.78251208      1.03952003      1.15611907
H      -1.35609160      1.54844725     -0.42260751
H      -1.38355357     -1.61238320     -0.82392553
H       3.86898029     -0.17023110     -0.07451904
H      -2.41500157     -0.52444143      1.15685438
