11
b3lypvtz=-212984.68852967408
C      -0.51475763     -0.89112197      0.05635961
C      -1.47806386      0.14632714     -0.01102990
N      -1.28898962      1.45512955     -0.00554415
N      -1.28599058      2.57556901     -0.00699448
O       1.39814794      1.37092962      0.08778347
C       1.74037212      0.19985138      0.14009243
C       0.84481008     -0.93311460      0.12542792
H      -1.00901843     -1.85665556      0.04891875
H      -2.52885928     -0.09849356     -0.06461040
H       2.81588068     -0.05735995      0.20170485
H       1.30646857     -1.91106107      0.17206304
