13
b3lypvtz=-237079.64102059
N      -1.69820278     -1.25363568      0.29545609
C      -1.12648793     -0.13991086      0.05426894
N      -1.54779421      0.90641336     -0.71434926
C       0.28161040      0.04908323      0.63081661
O       0.73204271      1.37771712      0.57208198
C       1.24126358     -0.86669539     -0.11382883
O       2.24986197     -0.43220414     -0.61216134
H      -2.61299398     -1.32658343     -0.14657704
H      -1.05426615      1.77745799     -0.60045031
H      -2.51535326      0.95089675     -0.98371701
H       0.23716410     -0.30748640      1.66644217
H       1.57915364      1.35073653      0.09603945
H       0.95169892     -1.92660111     -0.16889146
