14
b3lypvtz=-231985.72413145
C       2.88799119     -0.21077798      0.00000302
C       1.81671802      0.58542147      0.00000111
C       0.44527157      0.13418237      0.00000022
F       0.28162397     -1.21847332      0.00000113
C      -0.61127808      0.96370483     -0.00000163
O      -1.93564165      0.73006538     -0.00000255
C      -2.43619458     -0.61101273      0.00000660
H       3.88578340      0.20346368      0.00000340
H       2.79418519     -1.28747586      0.00000424
H       1.94267714      1.66196563      0.00000003
H      -0.40513439      2.02495999     -0.00000349
H      -2.11359593     -1.15078754      0.88985094
H      -2.11359880     -1.15079900     -0.88983177
H      -3.51861406     -0.51330893      0.00000774
