14
b3lypvtz=-203689.11866759
C      -3.60102624      0.23011364     -0.33490967
C      -2.20872541     -0.07157752     -0.03436740
C      -1.05931770     -0.32824381      0.20203266
C       0.33195789     -0.63878218      0.51430219
N       1.18951552      0.54169973      0.44468035
C       2.41956025      0.51917170     -0.12593501
O       2.95730353     -0.46234391     -0.59399484
H      -4.22714920      0.13669170      0.55439758
H      -3.99297051     -0.44869808     -1.09470232
H      -3.70661123      1.24880003     -0.71313026
H       0.74212138     -1.36220186     -0.19162867
H       0.39456234     -1.09582678      1.50727400
H       0.82535519      1.41866416      0.77722973
H       2.89618718      1.51535017     -0.11844834
