11
b3lypvtz=-264582.69438931
O      -2.87269075      0.42776327      0.03550164
C      -1.68168571     -0.08704174     -0.33545805
C      -0.50209160      0.25629715      0.19791567
F      -0.51105643      1.19126582      1.18339145
C       0.77117606     -0.28675923     -0.19070412
N       1.85702813      0.08985714      0.36338047
O       2.95289882     -0.58591489     -0.19097092
H      -2.72834225      1.07463200      0.73916193
H      -1.75124912     -0.82250882     -1.12207961
H       0.77002039     -1.03582893     -0.98074668
H       3.69609245     -0.22176178      0.30050821
