18
b3lypvtz=-205207.2393295
C       2.97768617      0.92865231      0.06974525
C       2.49942282     -0.51289626     -0.11108584
C       1.07327841     -0.76311437      0.37292755
N       0.08672988     -0.01841864     -0.41085880
C      -1.26179441     -0.36431310     -0.21081943
C      -2.24784265      0.48861074      0.06773560
O      -3.58845070      0.19098897      0.12380121
H       4.02147532      1.03481199     -0.22895438
H       2.89813678      1.24402001      1.11307262
H       2.40051084      1.62792377     -0.53868344
H       3.16475551     -1.18378842      0.43913901
H       2.56445097     -0.79412504     -1.16500854
H       1.00007453     -0.53724530      1.44873176
H       0.83683585     -1.82435574      0.26314493
H       0.22771721      0.98022991     -0.33914695
H      -1.47943858     -1.41908256     -0.35999044
H      -2.07522478      1.54185180      0.24821355
H      -3.71527917     -0.74365506     -0.07182665
