19
b3lypvtz=-192727.39876537
C       0.17703651      2.10865190     -0.15645600
C       0.03661078      0.65481849      0.24199623
C      -1.10816405     -0.20356406     -0.34119011
N      -2.31343308     -0.31854312      0.44876007
C      -0.04589799     -1.33434410     -0.44129708
N       0.99873663     -0.30068599     -0.35203238
C       2.21437669     -0.60472168      0.36702587
H       1.09156331      2.54691323      0.24956668
H      -0.66718229      2.68774679      0.22334872
H       0.20850592      2.20389413     -1.24271134
H       0.01796693      0.56611036      1.34260327
H      -1.38025478      0.15533901     -1.33416223
H      -3.02604043     -0.85045043     -0.03536018
H      -2.13254035     -0.78407061      1.33027108
H      -0.08548061     -1.98465314      0.44824183
H      -0.01171152     -1.95836263     -1.33728154
H       2.84301229      0.28523397      0.43118692
H       2.78024180     -1.37135440     -0.16567819
H       2.02772225     -0.96820072      1.39304439
