13
b3lypvtz=-192777.95146197
C       2.89277455      0.57163643     -0.01959578
C       1.73537672      0.33992048     -0.23376962
C       0.35069453      0.06245618     -0.54205821
C      -0.42411083     -0.99138729      0.30948841
C      -1.75523124     -0.34822280     -0.13341388
C      -0.77018764      0.76219574      0.28865111
O      -0.39222425     -0.06037535      1.46082608
H       3.91422725      0.77651949      0.18279143
H       0.17470390      0.01463905     -1.61777269
H      -0.16951167     -2.03212240      0.49117364
H      -2.04147528     -0.41712264     -1.18262159
H      -2.58424177     -0.50362403      0.55084000
H      -0.93079426      1.82548714      0.44546111
