13
b3lypvtz=-213784.80771226
C      -1.37786771      0.15802494      0.08206277
C      -0.82842661     -1.21334745     -0.18544849
N       0.38346129     -1.54610335     -0.29106821
C       1.41456910     -0.52992491     -0.14738150
C       1.00485391      0.90941510      0.12176043
O       1.83482653      1.79165842      0.24443907
N      -0.33105481      1.14764005      0.21494344
H      -1.99152031      0.11199933      0.99059396
H      -2.06307457      0.41999104     -0.73402708
H      -1.58233095     -1.99327177     -0.29676523
H       2.08918819     -0.83335507      0.65684042
H       2.02937589     -0.53095671     -1.05059846
H      -0.58199993      2.10823037      0.39464889
