14
b3lypvtz=-201266.3989475
C       0.68198105      1.55631893     -0.00000228
C       0.46415722      0.07451206     -0.00000862
C       1.63227655     -0.82434250      0.00001680
N       2.86280598     -0.50357429      0.00000469
C      -0.75256073     -0.50330138     -0.00004307
N      -1.92944950      0.25673121     -0.00003584
N      -2.96229499     -0.44625609     -0.00001030
H       1.25599083      1.86064908      0.87891776
H      -0.26373753      2.08878459     -0.00003601
H       1.25606197      1.86066215     -0.87887092
H       1.39696142     -1.89010929      0.00001465
H       2.98443855      0.51078653     -0.00000511
H      -0.87236924     -1.58388891     -0.00002946
H      -3.76019656      0.20304291     -0.00004928
