13
b3lypvtz=-211365.28519059
C       2.36445856     -0.37189894      0.43749138
N       1.38690642     -0.43598420     -0.35873264
C       0.27358287      0.40454336     -0.19315918
N       0.27975560      1.67271107     -0.28678255
C      -1.03570767     -0.32483904     -0.00034840
N      -1.18415214     -1.58513542     -0.14187638
N      -2.05970661      0.49586567      0.37328088
H       2.38192449      0.28639828      1.31151159
H       3.23594684     -0.99683768      0.26028110
H       1.21664671      2.03895451     -0.44969570
H      -0.30193996     -2.01690469     -0.39920783
H      -1.93531730      1.48000519      0.20354792
H      -2.98654781      0.11162391      0.30711881
