13
b3lypvtz=-216174.54956301
C       2.16185626     -0.01366751      0.08730862
C       0.68396327      0.10871252      0.02854805
C      -0.32351887     -0.80407383     -0.01879074
C      -1.54297987     -0.05360237     -0.06274598
C      -1.19936090      1.25818830     -0.03935863
O       0.16992447      1.36514773      0.01681703
O      -2.82002245     -0.52850203     -0.11794602
H       2.56245724      0.45599467      0.98862289
H       2.63342679      0.46896190     -0.77183510
H       2.45006270     -1.06345161      0.09122976
H      -0.21503707     -1.87647550     -0.02209942
H      -1.76199755      2.17194060     -0.05552353
H      -2.79877400     -1.48917287     -0.12422694
