18
b3lypvtz=-181897.7617761
C      -1.09713313     -0.24426618      1.19524498
C      -1.59365678     -0.26136226     -0.29040427
C      -0.30671768      0.21921264     -0.97937272
C       0.13680156      1.39252041     -0.06213080
C       0.34193674      0.24200187      0.96198499
C       0.77027753     -0.64026466     -0.24990812
N       2.12991807     -0.39307309     -0.70677188
H      -1.66791559      0.44131354      1.82178569
H      -1.13369986     -1.23152728      1.65806355
H      -1.89484562     -1.25759037     -0.61761530
H      -2.43075848      0.41556886     -0.46206958
H      -0.31708614      0.30667153     -2.06480078
H      -0.60445167      2.15686133      0.17644435
H       1.07229800      1.83934390     -0.37979080
H       0.98568949      0.35243480      1.83334276
H       0.52532622     -1.70744051     -0.15541617
H       2.28456961     -0.82433459     -1.61068493
H       2.79944773     -0.80606994     -0.06790093
