12
b3lypvtz=-249558.4508753
O       2.10785575      1.59632081     -0.01751035
C       1.59005754      0.80161914     -0.74859236
O       2.07907608      0.50999394     -1.96189462
N       0.40073722      0.04023744     -0.48412845
C      -0.14861137      0.23994771      0.64474348
C      -1.38561380     -0.49816017      1.01878664
O      -1.84387005     -1.38565824      0.03678934
H       1.49951511     -0.15136207     -2.36353427
H       0.26869754      0.95093612      1.36157651
H      -1.18335604     -1.03074129      1.95987528
H      -2.15780440      0.24746799      1.25954494
H      -1.22658357     -1.32070138     -0.70565613
