20
b3lypvtz=-210988.49515661
C       2.35562948     -0.68456003     -0.02252141
C       1.38246462      0.38859448     -0.52085256
C      -0.07181139      0.33976094      0.01227083
C      -0.11260636      0.42898122      1.54580082
C      -0.84700301      1.52397218     -0.58904607
C      -0.72160841     -0.96519773     -0.44744351
F      -2.06185717     -1.02879219     -0.04538102
H       3.34107155     -0.52861197     -0.46451296
H       2.47803792     -0.65403116      1.06054112
H       2.03885666     -1.69275754     -0.29337454
H       1.78722254      1.37288970     -0.26889673
H       1.34643314      0.35362547     -1.61432433
H       0.35861332      1.35239570      1.88874931
H      -1.14245718      0.42267271      1.90250546
H       0.40526500     -0.40745071      2.01710431
H      -0.80231651      1.51095065     -1.68060542
H      -1.89563994      1.49636076     -0.29426694
H      -0.42249955      2.47047630     -0.24897513
H      -0.71027654     -1.04461778     -1.53762296
H      -0.22622416     -1.83736000     -0.01863225
