12
b3lypvtz=-223820.60766689596
C       1.74140469      0.07322835      0.28148863
C       0.44151725     -0.66385977      0.05234307
O       0.34990775     -1.88195527      0.13249253
C      -0.75791607      0.09484282     -0.27862352
N      -0.69700852      1.39014443     -0.37181611
N      -0.63632056      2.52843715     -0.45178207
N      -1.94842617     -0.58807979     -0.48940719
H       2.04009164      0.63512132     -0.60589086
H       2.51069886     -0.65678840      0.51772496
H       1.65515249      0.78403825      1.10601941
H      -2.80592276     -0.12985252     -0.71805560
H      -1.89317859     -1.58527656     -0.39650867
