16
b3lypvtz=-181112.1473997
C      -1.99388289     -0.10295131      0.00816743
C      -0.55325970     -0.45503963      0.31891048
C       0.44492636      0.69277456      0.24899739
C       0.49344329      1.91556007      0.75353574
C       1.18853820     -0.02048435     -0.81602349
N       0.13178553     -1.13202453     -0.86022082
C       1.49306872     -1.41447247     -0.40982806
H      -2.58780798     -1.01052721     -0.11045023
H      -2.42475916      0.48886389      0.81759937
H      -2.05800907      0.47481313     -0.91368719
H      -0.49692194     -1.07455830      1.21856433
H      -0.22146182      2.24916748      1.49468826
H       1.24616795      2.62752916      0.43894822
H       1.60704640      0.41787776     -1.71266910
H       2.06149364     -2.01121829     -1.11216977
H       1.66963248     -1.64530999      0.63563745
