14
b3lypvtz=-227007.2145114
C       1.48026749     -0.35573167      1.10335523
C       0.58582045      0.02967687     -0.05884969
O       1.14013980     -0.33554227     -1.31044028
C       0.05563161      1.49231360     -0.08890153
N      -1.28784104      0.93944945      0.14610218
C      -0.91368716     -0.37265429      0.08332221
O      -1.51519618     -1.41519344      0.09817062
H       1.58693329     -1.44107364      1.14835834
H       1.06304460     -0.02071382      2.05425108
H       2.47005629      0.08433483      0.97521478
H       1.05880153     -1.29195517     -1.40370295
H       0.41498019      2.14616786      0.70565750
H       0.18233966      1.96175492     -1.06344147
H      -2.20161353      1.36669979      0.12530598
