15
b3lypvtz=-193554.74693317473
C       1.04986591     -0.88163548      0.78771841
C       1.76721656      0.17932175     -0.06267921
C       0.68308803      0.18768113     -1.12602423
C       0.58579124      1.13467927     -0.02685188
C      -0.14649216     -0.19898961      0.08783042
C      -1.61867057     -0.46057161      0.17428454
O      -2.38807051      0.41933708     -0.63895225
H       1.23142381     -1.92300228      0.50907675
H       1.10813642     -0.74963439      1.87138135
H       2.80962840      0.43417758     -0.18533462
H       0.58473334      0.23793734     -2.19370409
H       0.40499376      2.18960831      0.06424795
H      -1.84028917     -1.46650019     -0.18810122
H      -1.94224945     -0.41479135      1.22215076
H      -2.28910564      1.31238244     -0.29504268
