12
b3lypvtz=-226177.64786543
C      -0.90378772      2.13501571     -0.45604923
C      -0.30154971      1.09780772     -0.37846523
C       0.33173835     -0.17489232     -0.27093676
C      -0.54621417     -1.38322909     -0.02744551
O      -1.29521805     -1.28221251      1.17318228
N       1.59375850     -0.37961941     -0.35757429
O       2.31750816      0.78172140     -0.59527101
H      -1.41073237      3.06501613     -0.53015603
H       0.09546076     -2.25588767      0.06948497
H      -1.20478378     -1.52780816     -0.89219878
H      -1.90210809     -0.53843367      1.09466759
H       3.22592811      0.46262187     -0.62323801
