14
b3lypvtz=-201310.1543046
C      -2.53659283      0.35597848      0.11846311
N      -1.50225355     -0.61348931     -0.17299468
C      -0.17812183     -0.22710938     -0.06413405
C       0.36790042      1.03686460     -0.06148286
N       1.73877889      0.82532150      0.01278463
H       2.44608035      1.53778115      0.03293396
C       1.94128606     -0.51087147      0.06307971
N       0.80974468     -1.17739791      0.02025124
H      -2.44152480      0.81318399      1.11373531
H      -2.51612330      1.15994271     -0.62123099
H      -3.51019117     -0.12631344      0.04895839
H      -1.65456036     -1.53498672      0.20577880
H      -0.05973757      2.02011084     -0.11152039
H       2.92327300     -0.94882202      0.13337384
