14
b3lypvtz=-203688.82580264
O       2.57982236      0.21649917     -0.36407638
C       1.23381725      0.09745076     -0.08950888
C       0.64870317     -0.95901349      0.50412425
N      -0.72013074     -0.92721119      0.80973756
C      -1.55916018     -0.16429104     -0.11220546
C      -0.90976596      1.17668152     -0.35141026
C       0.42438988      1.26243654     -0.39088703
H       3.04252570     -0.55934588     -0.03219032
H       1.20915317     -1.80976954      0.87082498
H      -1.10144985     -1.82894200      1.04553068
H      -2.54722428     -0.04742981      0.33427923
H      -1.69741180     -0.68766846     -1.07978460
H      -1.53697407      2.03700733     -0.54082973
H       0.93360534      2.19359609     -0.60360405
