17
b3lypvtz=-191974.93356213
C       1.28658908      1.78402874      0.11661485
N       0.19694820      1.20582729     -0.18307407
C      -0.10285371     -0.10308296      0.22219447
C       0.74733629     -1.14639124      0.13396103
N       2.09431682     -1.14728738     -0.22478159
C      -1.54605380     -0.30905320      0.61677829
C      -2.53771824     -0.07717665     -0.52987689
H       2.05137511      1.34960533      0.76665972
H       1.46533130      2.79009300     -0.25571059
H       0.35893221     -2.13261432      0.35591762
H       2.41890811     -0.30246962     -0.67529774
H       2.37498874     -1.96772269     -0.74137767
H      -1.66156618     -1.32079897      1.01136425
H      -1.79113108      0.37069211      1.43948885
H      -2.37948834     -0.80005085     -1.33240245
H      -2.41387114      0.92090350     -0.94816289
H      -3.56709936     -0.17778809     -0.18039619
