13
b3lypvtz=-218749.60520863
C       2.68973474     -0.66533906     -0.05529924
C       1.83509786      0.33468597      0.15963483
C       0.39114920      0.28259274     -0.00080851
F      -0.14958055      1.49828057     -0.28671478
C      -0.40596361     -0.79238092      0.08587305
N      -1.75471618     -0.86794563     -0.24066728
C      -2.60507319     -0.03177861      0.18540891
H       3.74556411     -0.54300696      0.14109244
H       2.36838838     -1.62645209     -0.43450381
H       2.20891017      1.29990544      0.48533625
H       0.06408617     -1.74062208      0.31184330
H      -3.63443021     -0.12001689     -0.15227550
H      -2.36955190      0.77158251      0.88599432
