15
b3lypvtz=-193610.90966487
C      -2.84987054      0.00357234      0.08868272
C      -1.75880383     -0.70576472     -0.17682638
C      -0.41208676     -0.16198345     -0.46917994
C       0.00358646      1.21914682     -0.13808173
C       0.57129256      0.07850276      0.69346869
C       1.98192861     -0.30971781      0.49706266
O       2.57625252     -0.22293467     -0.55345525
H      -3.79412525     -0.47959377      0.30044310
H      -2.84485806      1.08627028      0.09652650
H      -1.82801733     -1.78968473     -0.19241737
H       0.08649678     -0.60046378     -1.32635589
H       0.70296849      1.70268235     -0.80537881
H      -0.69416503      1.87347313      0.36399846
H       0.17525084     -0.04769598      1.69168792
H       2.49169554     -0.70735276      1.39754231
