19
b3lypvtz=-192722.30070271
C      -2.97717263     -0.26115735      0.22604267
C      -1.52916787     -0.69401727     -0.01586180
C      -0.68237973      0.45008376     -0.53368734
C       0.08568156      1.33259942      0.38679772
N       0.78181049      0.44466394     -0.53971134
C       1.52272146     -0.69077544      0.02016277
N       2.93052755     -0.41246918      0.20980012
H      -3.03225518      0.52381016      0.98253847
H      -3.42982655      0.12831055     -0.68826071
H      -3.58689243     -1.09926382      0.56637748
H      -1.11025687     -1.09418162      0.90861308
H      -1.51348918     -1.51116047     -0.74393276
H      -1.09433165      0.91109907     -1.42831236
H       0.17823743      2.39580499      0.19880999
H       0.08339695      1.05762064      1.43952107
H       1.42447543     -1.51938572     -0.68410017
H       1.12116933     -1.02376402      0.98473348
H       3.32075938     -0.04458534     -0.65091096
H       3.05510449      0.30584469      0.91421856
