16
b3lypvtz=-204458.21144745
C       2.18963968     -0.01091674     -0.83219805
C       1.12595309     -0.05419333     -0.02248876
N       1.13557134     -0.64605910      1.23987022
C      -0.24056305      0.43847526     -0.45824329
C      -0.81139825      1.57186164      0.39814088
C      -1.19435530     -0.74746292     -0.55221097
O      -2.29380511     -0.78311995     -0.06496393
H       3.15930328     -0.37593210     -0.51855293
H       2.10668818      0.38096396     -1.83392994
H       0.50441468     -0.24955199      1.91788849
H       2.04874871     -0.81982949      1.62989597
H      -0.12316022      0.79254177     -1.48771271
H      -1.01813995      1.24839791      1.41886088
H      -1.75879364      1.91536576     -0.01458915
H      -0.11705349      2.41092852      0.43089858
H      -0.79700195     -1.60390419     -1.13310128
