16
b3lypvtz=-202031.0999517
C       0.56010401      2.00847860     -0.25716239
C       1.08934970      0.90234879      0.26960669
N       0.61749057     -0.40909326      0.17939887
C       1.64736946     -1.44333202      0.13840416
N      -0.35726404     -0.67270122     -0.83608041
C      -1.56181336     -0.43799790     -0.46716492
N      -1.99666816      0.08902759      0.70855859
H       1.01542197      2.96457270     -0.04792920
H      -0.31080637      1.99144003     -0.89412540
H       1.97607199      0.96957591      0.89011160
H       2.38062478     -1.24713877      0.92004098
H       2.15269551     -1.47499732     -0.83329129
H       1.19009383     -2.41343652      0.32362315
H      -2.33576064     -0.65163260     -1.19761828
H      -2.96107859     -0.02559030      0.96240585
H      -1.32500766      0.15608028      1.45677303
