16
b3lypvtz=-181123.36896965
C       1.54954693     -0.74713891     -0.17352845
C       1.67387096      0.82111296     -0.20613984
C       0.16324643      0.81343583     -0.16129596
C      -0.87546243      1.15740259      0.58702256
C      -1.89089311      0.02775201      0.55765151
N      -1.09173585     -1.13473789      0.07651665
C       0.05193824     -0.59538928     -0.64528992
H       1.59010556     -1.13270667      0.84300507
H       2.22348529     -1.30719330     -0.82147644
H       2.08210090      1.16953788     -1.15621656
H       2.19686354      1.31511579      0.61038496
H      -0.97333792      2.01755461      1.23414047
H      -2.75158676      0.24953702     -0.09221372
H      -2.29108153     -0.16688146      1.55705965
H      -1.64464363     -1.77587950     -0.47438412
H      -0.01241664     -0.71152167     -1.73523587
