12
b3lypvtz=-247100.80114783
C      -0.99944961     -0.76723088     -0.72622372
C      -0.23165410      0.00672387      0.06412690
N      -0.72433144      0.87858575      1.02434533
N       1.14241458     -0.15881090     -0.10570384
N       1.84632398      0.59212847      0.58412312
O       3.18681435      0.38225724      0.35642429
O      -2.36041244     -0.66571684     -0.65738032
H      -0.55402260     -1.46895264     -1.41378713
H      -0.09522893      1.63198486      1.25493106
H      -1.67522880      1.17304523      0.86817284
H       3.23051065     -0.33288854     -0.30704243
H      -2.76573564     -1.27112563     -1.28252172
