16
b3lypvtz=-204457.36748485
C       2.34193027     -0.69805047     -0.45019765
N       1.32978629     -0.47451632      0.26796368
C       0.33417558      0.46250147     -0.22265239
C       0.31631554      1.70932859      0.67635928
C      -1.07551909     -0.15411718     -0.22713200
C      -1.36453772     -1.29766476      0.71177613
O      -1.91462834      0.31094360     -0.96303702
H       2.50387617     -0.22846804     -1.42836702
H       3.10478697     -1.38920611     -0.09891936
H       0.53309132      0.77498435     -1.25617007
H       1.28754285      2.20314543      0.64315455
H      -0.44584462      2.40536017      0.32862594
H       0.10908080      1.43927098      1.71217520
H      -1.00916985     -1.07643846      1.71884767
H      -2.43167895     -1.50471139      0.71296050
H      -0.81430623     -2.18303285      0.38625257
