11
b3lypvtz=-210607.44821131
N      -3.37752897     -0.19120735     -0.12090691
C      -2.25327949     -0.01458929      0.05530827
C      -0.86692732      0.23948873      0.34237177
N       0.04336112     -0.24517831     -0.39255173
C       1.39595493      0.08281995     -0.09359046
N       1.90123624      1.25116680     -0.11243920
N       2.13497590     -1.03518909      0.18943397
H      -0.67179359      0.86616375      1.21600600
H       1.20435042      1.96257153     -0.30637997
H       1.79334054     -1.91047564     -0.16974839
H       3.13314923     -0.90418607      0.16537366
