11
b3lypvtz=-212976.50945196
C       2.60845569      1.27017302     -0.41550667
C       1.59723020      0.65742611     -0.20891393
C       0.42626967     -0.12206083      0.06574710
O       0.65203968     -1.30947650      0.69310606
N      -0.72836593      0.29587425     -0.26727643
C      -1.86877989     -0.47533608      0.00592483
N      -3.04034021     -0.10408665     -0.30411393
H       3.48856320      1.83239841     -0.61014367
H       1.59744209     -1.42039434      0.84821822
H      -1.73843382     -1.43353284      0.50589136
H      -2.99418069      0.80911546     -0.76293293
