11
b3lypvtz=-262218.82777876
C       2.34515813      0.29436764      0.22888974
O       2.59468626      1.30787861      0.83191800
N       1.10674019     -0.23676391     -0.00288806
N      -0.03183635      0.37470676      0.45544508
C      -1.13865971     -0.17443966      0.21305960
N      -2.36747074      0.36722589      0.46985226
F      -1.24475197     -1.37359769     -0.41661762
H       3.11625627     -0.35423954     -0.22658657
H       1.03415073     -1.09962090     -0.52370919
H      -3.08331346     -0.29442333      0.72885178
H      -2.33095935      1.18890614      1.05270258
