16
b3lypvtz=-202057.39975854
C       2.79681442     -0.70231252      0.01072407
C       1.67657824      0.32888118     -0.01252880
N       0.37700352     -0.31633918     -0.01305600
C      -0.67415675      0.40294686     -0.00360798
N      -0.73567973      1.77766849     -0.03058197
C      -2.01197670     -0.27898629     -0.00903411
N      -2.18755463     -1.52802479      0.01294532
H       2.73123923     -1.35371039     -0.86103352
H       3.77476944     -0.21780921      0.00845271
H       2.72194638     -1.32666998      0.90145876
H       1.78421817      0.96864469     -0.90040937
H       1.77808660      0.99402779      0.85961679
H       0.09240896      2.30956893      0.17223680
H      -1.60525411      2.22449029      0.20420464
H      -2.88824474      0.37386066     -0.03471728
H      -1.26640530     -1.98150453      0.02972094
