16
b3lypvtz=-204435.10668667
C       2.67375621      0.07154181     -0.40686672
N       1.57902357      0.31908213      0.17599522
C       0.48494668     -0.55404508     -0.02055068
C      -0.45334165     -0.78671633      1.15792363
C      -0.93205340      0.01281671      0.00252603
C      -1.17231289      1.49480680      0.11568312
O      -1.86325742     -0.67455908     -0.80141626
H       2.82699849     -0.79740366     -1.05770307
H       3.51675239      0.74215228     -0.26394903
H       0.62582849     -1.40054014     -0.69155347
H      -0.85212383     -1.78456818      1.27091179
H      -0.21270791     -0.26533595      2.07328731
H      -2.15165498      1.68023795      0.56011753
H      -0.40500112      1.96957444      0.72314709
H      -1.15141330      1.96477074     -0.87196429
H      -1.82605133     -0.30332845     -1.69020620
