17
b3lypvtz=-217687.61387908
C      -3.22754176      0.41702150     -0.11801260
C      -2.21934380     -0.43586700      0.01288604
C      -0.80210733     -0.17061166     -0.40140634
C       0.17268587     -0.24209992      0.78391332
C       1.63231031      0.00255786      0.41597495
O       1.72853333      1.30663510     -0.12285956
O       2.16625466     -0.95869702     -0.47244020
H      -3.08741731      1.39816515     -0.55705713
H      -4.22893603      0.16620380      0.20670561
H      -2.40799783     -1.40805968      0.46195937
H      -0.72825687      0.80601639     -0.88023393
H      -0.51542044     -0.92134517     -1.14823444
H       0.11309321     -1.22427627      1.25804222
H      -0.11409923      0.49777590      1.53373267
H       2.25696693     -0.09006911      1.30921891
H       2.65333915      1.46568307     -0.34067497
H       1.66027615     -0.92074594     -1.29243692
