15
b3lypvtz=-193592.77417672
C      -2.99163402     -0.24619246      0.32046372
C      -1.78158667     -0.51365017     -0.08091427
C      -0.56249158     -0.73435594     -0.47770231
C       0.54874692      0.30032044     -0.41583297
O       0.08528749      1.58931752     -0.03856360
C       1.64387607     -0.16727338      0.51108767
C       2.86635849     -0.49813417      0.11981998
H      -3.29774552     -0.41294935      1.34716982
H      -3.74184627      0.13502002     -0.36320576
H      -0.28278619     -1.71253547     -0.85541837
H       0.96764601      0.40524082     -1.42166346
H      -0.71293089      1.48827663      0.49317067
H       1.36689043     -0.21977632      1.55972860
H       3.61861431     -0.83119993      0.82247402
H       3.16198143     -0.44309924     -0.92166076
