14
b3lypvtz=-203666.37286733
C      -0.92679203     -1.00458403      0.09553461
C      -1.09088875      0.49017315      0.53230056
C       0.10018572      1.07326447     -0.24925648
C       1.21672312      0.06413364      0.02686178
N       2.37545635     -0.03575094      0.49322232
C       0.31090373     -0.83148757     -0.80192121
O      -0.02504697      0.39704264     -1.54925567
H      -1.77807488     -1.36918473     -0.47603654
H      -0.74577564     -1.68100686      0.93048709
H      -2.02986340      0.92479883      0.19462022
H      -1.00168003      0.63791491      1.60863081
H       0.24237081      2.14805981     -0.30976275
H       2.68494414      0.83865978      0.91953761
H       0.66753781     -1.65203311     -1.41496235
