12
b3lypvtz=-200531.27012419
N      -0.85581576      2.15715343      0.02215013
C      -0.76651064      1.00815002      0.00398600
C      -0.73561284     -0.42696654     -0.00050829
N      -1.99279710     -0.99981424     -0.08382281
C       0.42169222     -1.12759407      0.02102099
C       1.80255483     -0.63777036      0.02580084
N       2.28583496      0.53874544     -0.03494622
H      -2.05119649     -1.98281312      0.12707295
H      -2.76774071     -0.45596346      0.25846105
H       0.32352053     -2.20794727      0.03677813
H       2.53105517     -1.44821517      0.09628414
H       1.57092682      1.26198931     -0.10466989
