14
b3lypvtz=-226994.72670891
N      -1.55970748     -2.56416911     -0.54517552
C      -1.44236743     -1.43136395     -0.38876916
C      -1.26090966      0.00555621     -0.12677189
O      -1.72757046      0.70207410     -1.27741357
C       0.19994752      0.33250713      0.22260878
C       1.19637337      0.02851292     -0.89547763
O       2.50837395      0.46668324     -0.56250725
H      -1.88852829      0.23962591      0.74134094
H      -1.73432218      1.64329454     -1.07374320
H       0.47124971     -0.21799542      1.12809868
H       0.25768372      1.39602968      0.46953955
H       0.91769233      0.56991514     -1.79790864
H       1.18329340     -1.03906767     -1.13704580
H       2.87899150     -0.13170274      0.09302471
