14
b3lypvtz=-203666.92511959
N       3.24469217     -0.47679028     -0.02643358
C       1.97258893     -0.43472289      0.01917260
C       1.14328625      0.76785566     -0.03282025
C      -0.19556387      0.81371934     -0.01417136
C      -1.12545679     -0.32497565      0.05668225
C      -2.41644298     -0.27982147     -0.65321270
O      -2.36225053     -0.06740224      0.75105831
H       3.63445482      0.46560477     -0.11165760
H       1.45954140     -1.39233828      0.10720976
H       1.68813808      1.70512895     -0.09599986
H      -0.68509195      1.78137343     -0.05189954
H      -0.71094829     -1.30454214      0.26250686
H      -2.66615195      0.59299769     -1.24859977
H      -2.87319829     -1.21178690     -0.97137811
