16
b3lypvtz=-181114.63105082
C      -3.02777816     -0.63212194      0.28561530
C      -1.94325893     -0.14797300      0.09450195
C      -0.63274455      0.36053429     -0.15084001
C      -0.35965739      1.66571699     -0.08470661
C       0.40924522     -0.69202081     -0.51522152
N       1.77189779     -0.18948423     -0.51805504
C       2.43433359     -0.23267856      0.78011642
H      -3.99215869     -1.03986938      0.45864038
H       0.64108834      2.01699541     -0.29104617
H      -1.12481743      2.38661701      0.16476194
H       0.27665747     -1.54687915      0.16610273
H       0.16756147     -1.06394591     -1.51465178
H       2.31996512     -0.68459390     -1.20634187
H       3.46372299      0.11026740      0.67523181
H       1.93057752      0.44008044      1.47510738
H       2.44624963     -1.23473667      1.23526710
