12
b3lypvtz=-202937.06215498
C      -1.90685033     -0.96070272      0.00002249
C      -0.62007133     -0.60132059     -0.00000802
C       0.58994928     -1.40920073     -0.00000924
C       1.62675593     -0.56697532     -0.00002433
O       1.26132353      0.76218974      0.00000467
C      -0.13614880      0.80639042      0.00005347
N      -0.80674330      1.86963830      0.00003759
H      -2.68256260     -0.20812388      0.00002380
H      -2.20212486     -2.00078156      0.00002736
H       0.64305700     -2.48432779      0.00001439
H       2.68921476     -0.74439031     -0.00005085
H      -0.20720429      2.69251046      0.00003265
