15
b3lypvtz=-191221.05174369
N       2.64211507      0.26083077      0.00000941
C       1.63416151     -0.52331114      0.00000169
N       0.30506019     -0.22288038     -0.00001105
C      -0.75801404     -1.22926537      0.00000102
C      -1.99666669     -0.38116301      0.00000556
C      -1.70099755      0.91176712      0.00000335
C      -0.21655692      1.13909470     -0.00000318
H       2.36440029      1.24157796      0.00000632
H       1.82222927     -1.59783917      0.00000375
H      -0.70714732     -1.87927879      0.88240177
H      -0.70715849     -1.87928763     -0.88239363
H      -2.98927191     -0.80696495      0.00001092
H      -2.41056863      1.72605987      0.00000648
H       0.11871060      1.70235613     -0.88129810
H       0.11871860      1.70234888      0.88129368
