15
b3lypvtz=-193611.18938977
C      -1.80899219     -0.60741592     -0.11437488
C      -0.44114768     -0.03824668      0.11532998
C      -0.02753092      1.35285054     -0.34710098
C       0.77820193      0.20486451     -0.82772203
C       1.76954108     -0.20663679      0.26631137
C       0.53359788     -0.51394960      1.14581934
O       0.39703022     -1.13404059      2.16460625
H      -1.79120719     -1.69781311     -0.07823411
H      -2.50548748     -0.26266005      0.65256883
H      -2.20394949     -0.30202818     -1.08449115
H      -0.72299220      1.78974984     -1.05233146
H       0.40074819      2.06397515      0.35019283
H       0.84103133     -0.07955616     -1.86728646
H       2.31572238     -1.12871703      0.06578458
H       2.46543413      0.55962408      0.61092790
