15
b3lypvtz=-191157.5504393
C      -1.91291369      0.25154167      0.36655335
N      -1.03366195     -0.78001851     -0.16720652
C       0.28566212     -1.03489454      0.37199958
C       1.05421302      0.21856326      0.75617195
N       2.19799735      0.45253295     -0.12539481
C       0.86133850      0.77105149     -0.62747538
C       0.09070107     -0.47623171     -1.02732978
H      -2.65938807      0.49490699     -0.39053396
H      -1.40601738      1.17439689      0.66453484
H      -2.43406324     -0.15356672      1.23482941
H       0.53419423     -2.04696953      0.66567331
H       1.03355462      0.74254968      1.70080276
H       2.55507357     -0.41299762     -0.52074087
H       0.66732490      1.79128851     -0.92553468
H       0.16608494     -0.99215280     -1.97624922
