13
b3lypvtz=-213792.7852402
C      -1.75590152     -1.07940905      0.37980783
N      -0.42299724     -0.54814692      0.15068037
C      -0.19781376      0.75237434     -0.13494214
O      -1.05715729      1.60668925     -0.23094638
C       1.27571436      1.16414961     -0.35296370
C       2.26393921      0.10433904     -0.22686052
N       2.99769073     -0.77566122     -0.11588797
H      -1.96678143     -1.89781626     -0.30942297
H      -2.47011921     -0.27807502      0.21321365
H      -1.86063864     -1.44303986      1.40324556
H       0.36386249     -1.17391252      0.20832476
H       1.49272848      1.95856737      0.36253619
H       1.33747382      1.60994124     -1.34678464
