10
b3lypvtz=-223086.70573128
O       1.08879240     -0.09487352      0.28403568
C       2.28815047     -0.03436517      0.16174758
N       3.03037006      1.14509521      0.09017407
C       4.31443136      1.04758449     -0.04171394
C       5.01300861     -0.19634703     -0.11797301
N       4.36462623     -1.32178782     -0.05544716
N       3.05082186     -1.21815833      0.07962884
H       2.54425975     -2.09134713      0.12863248
H       4.88097770      1.97468848     -0.09611718
H       6.08616156     -0.25228917     -0.22836736
