14
b3lypvtz=-180324.71819688
C       2.23156719      1.45263329     -1.15020098
C       1.42832124      0.89025674     -0.45736533
C       0.45789460      0.19046132      0.36405109
C       0.13761220     -1.31393103      0.08584414
N      -1.33674471     -1.04495912     -0.01920753
C      -1.48542359     -0.12541830     -1.16023056
C      -1.03627316      0.43553021      0.12128588
H       2.94170801      1.95436874     -1.75870146
H       0.70257754      0.32793438      1.41744205
H       0.34940274     -1.96090716      0.93334806
H       0.57263297     -1.73768428     -0.81959725
H      -0.79429914     -0.19978147     -1.99296871
H      -2.51848733      0.03890752     -1.43654158
H      -1.65038857      1.09268916      0.72294218
