16
b3lypvtz=-204448.50716403
C      -2.78194116      0.02205599      0.00016150
C      -1.47102899     -0.75151694     -0.00017388
C      -0.23929770      0.11848076     -0.00035993
O      -0.26501966      1.32533286     -0.00047550
N       0.96958075     -0.66383497     -0.00044445
C       2.09812236     -0.03116829      0.73281562
C       2.09839498     -0.03061995     -0.73274486
H      -2.85858467      0.66331359      0.87792940
H      -2.85887555      0.66356727     -0.87739444
H      -3.63045481     -0.66271433      0.00020686
H      -1.38891358     -1.41715837      0.86469147
H      -1.38926621     -1.41694675     -0.86523937
H       2.70737078     -0.73534887      1.28290239
H       1.88364767      0.90968523      1.22298593
H       2.70785872     -0.73440990     -1.28309657
H       1.88412107      0.91059667     -1.22230319
