14
b3lypvtz=-201280.92559729
N       2.16282656     -1.39829845     -0.17676701
C       2.35041395     -0.19208774      0.19004932
C       1.49619061      0.99711832     -0.00904089
N       0.21775357      1.09461690     -0.09495124
C      -0.66476817      0.05735647      0.08333709
C      -1.98368368      0.31293489     -0.08710739
N      -3.00654253     -0.56470395      0.11507453
H       1.28202803     -1.48958385     -0.68324107
H       3.29856690      0.02387847      0.69182337
H       2.04982899      1.93293181     -0.08422979
H      -0.34278201     -0.93098986      0.40697674
H      -2.27517937      1.31166486     -0.38606342
H      -3.90637330     -0.35973353     -0.27893468
H      -2.80079954     -1.54132336      0.24038045
