16
b3lypvtz=-181132.23541496
C      -2.35291726     -1.25025211     -0.00003280
C      -1.98096218      0.03189913     -0.00015953
C      -0.61221054      0.54932237      0.00006804
C      -0.39182057      1.86759837     -0.00005343
C       0.51627233     -0.45570740      0.00045417
N       1.84019775      0.16062366      0.00070264
C       2.84521649     -0.59793703     -0.00056175
H      -1.64317969     -2.06677103      0.00025734
H      -3.39886482     -1.52474895     -0.00021803
H      -2.75447729      0.79352680     -0.00045862
H      -1.22025752      2.56435947     -0.00033620
H       0.61084257      2.26644394      0.00014390
H       0.41210747     -1.10614551      0.87705160
H       0.41238505     -1.10660848     -0.87582886
H       2.78786736     -1.69447395     -0.00157530
H       3.84110884     -0.15991628      0.00000184
