17
b3lypvtz=-171067.99391972
C       2.66512065      0.08835078     -0.16403923
C       1.52668040     -0.55977710     -0.37087266
C       0.41876651     -0.72112500      0.63902444
C      -0.96415743     -0.42994121      0.08893865
C      -1.81248246     -1.42849780     -0.18506225
C      -1.37851954      0.95485247     -0.14632393
C      -0.66334081      2.05433250      0.09483442
H       2.87357990      0.58965313      0.77445397
H       3.43317769      0.13994053     -0.92435987
H       1.35875829     -1.04640197     -1.32734056
H       0.42388528     -1.75572748      0.99393742
H       0.62281947     -0.09063404      1.50807990
H      -1.54947105     -2.46368680     -0.01118982
H      -2.79769403     -1.23575987     -0.59053764
H      -2.37996393      1.06744669     -0.55085187
H      -1.07121628      3.03573567     -0.10561798
H       0.34419534      2.01848751      0.48428102
