12
b3lypvtz=-202928.89141688
C      -2.53958122     -0.21036612      0.24487902
N      -1.64861328      0.50441377     -0.30184603
C      -0.29988970      0.19354160     -0.11763477
C       0.31239720     -1.02673526     -0.14286043
O       1.65759083     -0.87960665      0.00139883
C       1.90038972      0.45468986      0.13068060
C       0.74927663      1.15977239      0.04763323
H      -2.31471450     -1.04451479      0.91760942
H      -3.58534935      0.01129166      0.04951471
H      -0.04482202     -2.02435211     -0.32238958
H       2.92909826      0.73357860      0.27084116
H       0.63012242      2.22760806      0.10600583
