11
b3lypvtz=-189682.36230014
C       2.69217279      0.00109694     -0.31522804
C       1.58927235      0.38268145     -0.01386297
C       0.29059037      0.80535467      0.33060698
C      -0.81536984      0.09843752     -0.01607732
C      -2.10578420      0.57527914      0.38307717
N      -3.15286195      0.93226813      0.70623472
N      -0.81538214     -1.04514746     -0.78241948
H       3.67165414     -0.31471855     -0.57533410
H       0.16748395      1.72689845      0.88036660
H      -1.60080899     -1.66640714     -0.68967383
H       0.07903350     -1.49574313     -0.89908652
