16
b3lypvtz=-202050.86513843
C       2.51849983     -0.50800175     -0.01318747
N       1.27250723     -0.77420076     -0.06103600
C       0.31686454      0.22874912     -0.00388339
N       0.73648184      1.58190298      0.12204486
C      -0.99694299     -0.11842544     -0.02023879
C      -1.48195877     -1.53171855      0.05194547
N      -1.99990270      0.85234914     -0.00338364
H       2.91693009      0.50021597      0.10630027
H       3.22469696     -1.33043400     -0.07444523
H       0.05184388      2.19021360      0.54360125
H       1.11492468      1.99620121     -0.72052103
H      -0.64422550     -2.21923422      0.08438802
H      -2.10037572     -1.67840527      0.94290284
H      -2.10419136     -1.76952518     -0.81691537
H      -2.90865488      0.51619683     -0.28123402
H      -1.76655012      1.71865732     -0.46631380
