13
b3lypvtz=-192804.47217097
C       2.81554076      0.42494311     -0.20351059
C       1.82053354     -0.16746718      0.10785054
C       0.60480227     -0.88668309      0.45894024
C      -0.63295302     -0.45919471     -0.37140267
O      -1.70820094     -1.36956513     -0.15098432
C      -1.03026187      0.92248602     -0.09925047
C      -1.38087979      2.03880413      0.16387012
H       3.69736201      0.95019894     -0.47323690
H       0.74060871     -1.95717928      0.29069773
H       0.38099322     -0.75127570      1.52057525
H      -0.38098111     -0.55629558     -1.42927411
H      -2.18053193     -1.09603496      0.64261257
H      -1.68510985      3.03199342      0.38310163
