18
b3lypvtz=-181896.71803959
C       2.37098356     -0.75154609     -0.36584535
C       0.89673182     -1.00470511     -0.07438542
N       0.05323203      0.05760563     -0.57641195
C       0.06586933      1.45225796     -0.10026243
C      -1.43832621      1.52631404     -0.48187266
C      -1.34298742      0.01953444     -0.65516655
C      -2.22104235     -0.97743542     -0.75124326
H       2.98091220     -1.57081490      0.01702184
H       2.71734262      0.16794548      0.10957225
H       2.54296754     -0.66313578     -1.43908760
H       0.57811990     -1.93010392     -0.55709037
H       0.74469341     -1.14258546      1.00816382
H       0.23570160      1.53951142      0.97954572
H       0.75511945      2.11114652     -0.62923753
H      -1.63316961      2.07038823     -1.40490168
H      -2.11450665      1.87295118      0.29599149
H      -3.27841164     -0.76460662     -0.80342339
H      -1.91322959     -2.01272159     -0.79416985
