18
b3lypvtz=-202815.49877949
C      -2.55043506     -0.40865082      0.16492508
N      -1.13791429     -0.72222449      0.15536076
C      -0.29670309      0.20898541     -0.08297807
N      -0.59927015      1.56690104     -0.20605529
N       1.05680569     -0.08673864     -0.24835041
C       2.05594870      0.77158231      0.37920483
C       1.41375248     -1.49676562     -0.21544698
H      -2.88143050      0.15631686     -0.72052973
H      -3.12294053     -1.33568792      0.18350351
H      -2.84531928      0.16798454      1.05163480
H      -1.58297831      1.76851562     -0.27189297
H      -0.05869558      2.06714666     -0.89445005
H       1.73621475      1.80875295      0.38167062
H       2.99617332      0.69907836     -0.16957115
H       2.24696149      0.47719310      1.42074431
H       0.71899123     -2.06657897     -0.82461902
H       1.38500546     -1.91105091      0.79979887
H       2.42427666     -1.60587150     -0.61163909
