19
b3lypvtz=-192733.1479507
C      -1.95294905      0.97902270     -0.31219157
C      -1.22576122     -0.25775571      0.15717056
N      -1.55441987     -1.44977477     -0.13893213
C      -0.00051666     -0.06497786      1.05295502
N       1.28203526      0.09904359      0.37211488
C       1.49204667      1.36112399     -0.30889530
C       1.70420085     -1.04898545     -0.41182717
H      -1.28832426      1.64131229     -0.86988011
H      -2.31704426      1.55229781      0.54461373
H      -2.80216200      0.72341695     -0.94616083
H      -2.36602232     -1.46424667     -0.75986995
H      -0.14655547      0.80538965      1.69802082
H       0.07052319     -0.95014034      1.68580241
H       2.55357177      1.47150930     -0.54085659
H       1.20392473      2.18800245      0.34243818
H       0.94221254      1.46610619     -1.25950539
H       1.60152335     -1.95783343      0.18052280
H       2.75532875     -0.92793880     -0.68168137
H       1.12834401     -1.19325789     -1.33854602
