12
b3lypvtz=-249494.28043245
C      -1.86327614      0.11354019     -0.33947353
C      -0.52058571     -0.48155712     -0.24760108
O      -1.60524130     -0.96440267      0.55253627
C       0.57515129      0.21676027      0.46518680
N       1.81626123      0.18888942      0.17825104
O       2.09735163     -0.62242045     -0.94614839
O       0.18148326      0.96738769      1.51855552
H      -2.04946290      1.07016312      0.13459248
H      -2.47809290     -0.12704366     -1.20061836
H      -0.18519354     -1.15358905     -1.02451714
H       3.05656190     -0.57605506     -0.99033265
H       0.97504319      1.36832730      1.89956899
