14
b3lypvtz=-255283.82908592
C      -0.61786326      1.34500806     -0.76623069
C      -0.13819207      0.17196827     -0.03211702
O       0.15762722      1.50509409      0.42906400
C       1.07219266     -0.59322076     -0.51195760
O       1.92488584     -0.94734550      0.56845726
C      -1.09020459     -0.57510051      0.86712888
F      -1.74883828     -1.55745082      0.12378352
H      -0.11956578      1.64348645     -1.68243067
H      -1.65972324      1.63629274     -0.68363579
H       1.60579003      0.00033316     -1.26117511
H       0.75672898     -1.52865033     -0.97501850
H       2.24187050     -0.13063524      0.96984015
H      -0.54959657     -1.07379951      1.67227198
H      -1.83511144      0.10401991      1.28201960
