16
b3lypvtz=-181116.5158884813
C       2.74930346      0.03126111      0.16316765
N       1.32488240      0.11450292      0.10293370
C       0.25207336     -0.83253658     -0.26625579
C      -0.70879941      0.32218000      0.04455150
C       0.37922121      1.08491620      0.35569824
C      -2.12063610      0.49826596      0.01382755
C      -3.03856010     -0.41715079     -0.33654089
H       3.09284419     -0.73227319      0.87140564
H       3.19577770     -0.19068262     -0.81354544
H       3.14351371      0.99198542      0.49598383
H       0.19023293     -1.69812493      0.39595527
H       0.29474662     -1.15219473     -1.30912622
H       0.56455661      2.09706487      0.69132951
H      -2.46571482      1.48609563      0.30931481
H      -4.09354979     -0.18466826     -0.32714261
H      -2.75989198     -1.41864104     -0.64061745
