14
b3lypvtz=-224567.08341772
C      -1.93538364      0.74838336      0.41252195
C      -0.73477398      0.02206240     -0.10994274
N      -0.96715695     -1.24315180     -0.59047261
C       0.48340090      0.61366992     -0.15279453
N       1.57600380     -0.10322920     -0.62088928
N       2.64744705      0.51546842     -0.66329796
O       3.67820830     -0.27994309     -1.12590141
H      -2.70058005      0.83268572     -0.36281834
H      -1.67293916      1.74682598      0.75361643
H      -2.38009210      0.20631362      1.25230792
H      -0.15013322     -1.79564852     -0.79628429
H      -1.74213991     -1.75212513     -0.20060474
H       0.62333101      1.63868244      0.16306316
H       3.27480796     -1.14999412     -1.30750357
