15
b3lypvtz=-216905.5621438
C      -2.72357652      0.07124190      0.12638526
C      -1.61728592     -0.59811709     -0.19512949
C      -0.23817817     -0.13808431     -0.00865155
C       0.09711830      1.15202628     -0.16762953
O       1.33932049      1.66158816      0.12739689
O       0.60313060     -1.16364847      0.33349150
C       1.96009472     -1.12636983     -0.10695523
H      -3.70274496     -0.33222686     -0.09290282
H      -2.68730434      1.03392871      0.61989011
H      -1.69963391     -1.59332956     -0.62083615
H      -0.65035966      1.85126297     -0.51573367
H       1.44139195      2.51175029     -0.30810533
H       2.01620455     -0.86470166     -1.16664916
H       2.55435962     -0.41669108      0.46621867
H       2.34480827     -2.13389845      0.03836251
