20
b3lypvtz=-205979.34900548
C       1.51607096     -1.05015325     -0.87884233
C       0.96378597     -0.56839318      0.46630604
C       1.16225722      0.94785790      0.64014958
O       0.62409403      1.74326358     -0.39618281
C      -0.47330345     -1.07122114      0.73672058
C      -1.58087095     -0.72280966     -0.26287766
N      -1.97671397      0.69570524     -0.19277517
H       1.03444953     -0.53777104     -1.71112510
H       2.58482411     -0.84030500     -0.95030170
H       1.37776857     -2.12624085     -1.00543573
H       1.57240466     -1.02437787      1.25688039
H       0.76206047      1.24874838      1.62022293
H       2.23484638      1.15613340      0.65833298
H      -0.34249875      1.58792750     -0.39733237
H      -0.78545327     -0.73279880      1.73180602
H      -0.43429360     -2.16304453      0.79556596
H      -2.43013972     -1.39169009     -0.07864494
H      -1.24349975     -0.91894279     -1.28151664
H      -2.41717840      0.89618781      0.69851575
H      -2.65643904      0.91453739     -0.91154378
