18
b3lypvtz=-205230.54761042
C      -2.41580155     -0.73971456      0.43602237
C      -1.26529134      0.05936391     -0.11521922
N      -1.31065312      1.13879731     -0.78003146
O      -0.09693837     -0.54027674      0.19439111
C       1.14262149      0.07449136     -0.25327424
C       1.56621115      1.15444810      0.73105920
C       2.14819394     -1.05694704     -0.37395741
H      -2.39816476     -1.75101881      0.02763960
H      -2.32243755     -0.82708938      1.51936125
H      -3.36772157     -0.27172836      0.19547519
H      -2.27155400      1.42924883     -0.92665654
H       0.95038717      0.52428376     -1.22691174
H       0.81286721      1.93804300      0.78573385
H       2.50618107      1.60659453      0.40950693
H       1.71324422      0.72957475      1.72584196
H       1.80270080     -1.80878172     -1.08363775
H       2.30424776     -1.54126317      0.59152451
H       3.10696645     -0.67039976     -0.72237861
