13
b3lypvtz=-211376.98144007
C       2.47924184      0.33848959      0.12687707
N       1.43968463     -0.62884529     -0.16919921
C       0.11682588     -0.30358421     -0.05744680
N      -0.88088373     -1.16655023      0.03439540
C      -1.97596605     -0.35672258      0.06756421
N      -1.73927734      0.93367719      0.00977360
N      -0.36874352      0.95876460     -0.06659844
H       0.11331670      1.83612248     -0.13876598
H       3.44806847     -0.14311011      0.01610748
H       2.41089902      0.75311520      1.13981043
H       2.44787508      1.16393918     -0.58806610
H       1.62193891     -1.58601237      0.08363202
H      -2.98051489     -0.74053645      0.14044434
