16
b3lypvtz=-181120.50420065
C      -1.17145132     -0.75452647     -0.31777571
C       0.18326522     -0.94981554      0.43490717
C       1.36118225     -0.58020990     -0.46531406
N       1.10974934      0.83253997     -0.84463484
C       0.12682285      1.33400412      0.10384748
C      -1.23795526      0.66409077      0.24042298
C      -0.10114087      0.36693661      1.21059792
H      -1.15548064     -0.87775762     -1.40520884
H      -1.95649762     -1.38604139      0.09650917
H       0.29859600     -1.87074983      1.00097864
H       2.30661227     -0.65703522      0.08139539
H       1.43480015     -1.21143352     -1.35308984
H       0.76152888      0.89024934     -1.79313045
H       0.16795016      2.39055406      0.33267438
H      -2.13516829      1.24443530      0.41147225
H       0.00718687      0.56475932      2.26634834
