18
b3lypvtz=-181903.79788385
N      -2.33803858     -0.00000001      0.42537212
C      -1.10386287      0.00000009     -0.36213657
C      -0.21247713      1.22259172     -0.05761036
C       1.20962230      0.75883264     -0.35858526
C       1.93753752     -0.00000017      0.71729037
C       1.20962225     -0.75883257     -0.35858551
C      -0.21247722     -1.22259169     -0.05761078
H      -2.90288670     -0.81108332      0.19821204
H      -2.90288671      0.81108334      0.19821224
H      -1.29428143      0.00000028     -1.44626475
H      -0.49259121      2.08716394     -0.66169019
H      -0.33540727      1.50430426      0.99164379
H       1.79827816      1.31010422     -1.07896756
H       1.51814539     -0.00000030      1.71635854
H       3.01935813     -0.00000020      0.68779958
H       1.79827808     -1.31010393     -1.07896800
H      -0.49259133     -2.08716368     -0.66169094
H      -0.33540737     -1.50430461      0.99164326
