11
b3lypvtz=-236344.32273334
N      -2.30857216     -0.69175246     -0.00038028
C      -1.14479845     -0.20002904     -0.00009505
C      -0.64391370      1.23513926     -0.00014313
O       0.78718516      1.13694014      0.00003129
C       1.16728378     -0.17537234     -0.00001948
O       2.30098267     -0.54877960     -0.00026426
N       0.01594091     -0.94485487      0.00040150
H      -3.02113735      0.03335209     -0.00065558
H      -0.96843211      1.77513115     -0.89019740
H      -0.96875636      1.77528144      0.88972139
H       0.04257761     -1.95083979     -0.00040701
