12
b3lypvtz=-226224.58350957
C      -1.41015891      0.21528446      0.55069184
C      -0.58967213      0.56635086     -0.66232435
C      -0.71046580     -0.85621284     -0.24360948
O       0.57406461     -1.23460478      0.20503265
C       1.41825789     -0.16900827      0.10995407
N       2.61101731     -0.22011418      0.48553551
O       0.76093750      0.91404097     -0.42332708
H      -1.01789847      0.46873800      1.52640173
H      -2.48501038      0.27509355      0.44631626
H      -0.99857164      1.01117706     -1.55592019
H      -1.22801342     -1.63996690     -0.77391268
H       3.07551348      0.66922207      0.33516170
