9
b3lypvtz=-318099.67377453
N      -1.65737829      0.96295802      0.00002673
C      -0.94709897     -0.18526687      0.00024099
O      -1.40047195     -1.30413099      0.00002162
C       0.59426504      0.01225599      0.00005437
F       0.94822148      1.32121227     -0.00017835
F       1.13361001     -0.55171589      1.08443555
F       1.13322565     -0.55198727     -1.08436796
H      -2.66163012      0.90254537     -0.00033752
H      -1.21284684      1.86308937     -0.00002242
