13
b3lypvtz=-213767.33091452
C      -0.32148701      0.88292414      1.33969505
C       0.05672982      0.29927342     -0.02676289
N       0.15370175      1.27016243     -1.12680236
C       1.33380715     -0.42232134      0.06137237
N       2.32455166     -1.00117962      0.14446384
C      -1.00341023     -0.72639562     -0.52191319
O      -2.03412419     -0.94136857      0.04737757
H      -1.29080936      1.37417895      1.26377535
H       0.42684037      1.60851467      1.65546989
H      -0.40020705      0.10261682      2.09520279
H      -0.61102182      1.93195496     -1.06764528
H       1.02316955      1.78724290     -1.08950150
H      -0.73694564     -1.19685614     -1.48447464
