15
b3lypvtz=-193593.2167466
C      -2.70034752     -0.40282846     -0.34617285
C      -1.56673633     -0.56130486      0.33345450
C      -0.36280956      0.27830969      0.21496146
C      -0.38909151      1.59429284     -0.00405189
C       0.92892641     -0.45052763      0.39244978
C       1.85652180     -0.69100553     -0.72452277
O       2.14130069      0.28762860      0.27898149
H      -3.54588835     -1.05773316     -0.18512804
H      -2.81713351      0.37752443     -1.08747270
H      -1.49226633     -1.39507578      1.02694176
H       0.53021516      2.15760017     -0.07974074
H      -1.32394924      2.13066639     -0.08877899
H       0.93080391     -1.18200594      1.19868887
H       1.60740959     -0.28966675     -1.70116454
H       2.50076980     -1.56460800     -0.71702833
