12
b3lypvtz=-223841.44768323
N       0.66137574     -0.34505824     -0.19239298
C       0.28574072      0.81547312     -0.92684930
C      -0.73494157      0.78999800     -1.85444040
O      -1.52813896     -0.22450734     -2.24143071
N      -0.84470146      2.02726676     -2.37060159
H      -1.49125757      2.34698831     -3.06923553
N       0.06104393      2.89138088     -1.82951817
C       0.73881891      2.15656580     -0.96126136
H       1.62005350     -0.62102369     -0.36397485
H       0.54615865     -0.22770313      0.80641057
H      -1.24327662     -0.99220990     -1.72268389
H       1.53172472      2.60862944     -0.38542179
