15
b3lypvtz=-193577.78680947
C       0.65174687      1.46805699      0.42741183
C       0.37227843     -0.04453051      0.34697998
C       1.53541518     -0.77473244     -0.15903058
C       2.49091117     -1.35631564     -0.59212329
C      -0.85098061     -0.31917652     -0.51291821
C      -2.19818743     -0.34036839      0.05929496
O      -1.53019052     -1.55444021     -0.30301276
H       0.85041903      1.87802861     -0.56340287
H       1.52240904      1.66353346      1.05165428
H      -0.20615619      1.99019695      0.85260168
H       0.14845638     -0.41780868      1.35114675
H       3.33278303     -1.88072279     -0.96955477
H      -0.73842794     -0.04725557     -1.55992498
H      -2.32777335     -0.18683397      1.12655232
H      -3.05270309     -0.07763129     -0.55577434
