12
b3lypvtz=-200502.7149667234
C      -2.81322651     -0.07725916      0.07134351
N      -1.65153447     -0.59458350      0.13589966
C      -0.55037982      0.17078596     -0.20472904
C       0.68836368     -0.35682981     -0.14347821
C       1.88775618      0.34918610     -0.47385877
N       3.05367444     -0.23116964     -0.39131938
N       4.06526290     -0.73422220     -0.31997877
H      -2.99331503      0.95686473     -0.24373301
H      -3.67711867     -0.67739120      0.33832596
H      -0.70381237      1.20495571     -0.52247909
H       0.78066476     -1.38725491      0.17844701
H       1.91366491      1.37691793     -0.80369123
