13
b3lypvtz=-234653.39308456
N       2.03888199     -0.16044759     -0.33927657
C       0.84113428     -0.47250773     -0.01234582
N       0.37551408     -1.70492402      0.34419469
C      -0.14078072      0.68045606      0.05235799
N       0.47536151      1.89329259      0.23987905
N      -1.42329416      0.66824874     -0.03712462
O      -1.99184988     -0.62932189     -0.19382837
H       2.65530561     -0.97038583     -0.36376232
H      -0.62084372     -1.85248627      0.32077390
H       0.96649438     -2.49643488      0.15379360
H       1.44240242      1.89030596     -0.05227466
H      -0.07260229      2.70152655     -0.00462439
H      -2.93119250     -0.42847269     -0.18838047
