15
b3lypvtz=-170276.3437556
C      -3.15130305     -0.41385228     -0.00723240
C      -1.99873241     -0.16581752      0.22432426
C      -0.62332070      0.12765726      0.49721028
C       0.07857738      1.27825623     -0.19805771
C       0.45018147     -0.12011143     -0.57024877
C       1.73472779     -0.74964548     -0.18398994
C       2.81895526     -0.12138361      0.25659143
H      -4.16997075     -0.63201531     -0.20861173
H      -0.30471757     -0.06446809      1.51414173
H       0.76583599      1.85827448      0.40074050
H      -0.50129515      1.85207164     -0.90602232
H       0.03891278     -0.48008752     -1.50564130
H       1.75804601     -1.83185213     -0.27631931
H       3.70989197     -0.66909988      0.53268487
H       2.86158797      0.95631865      0.35203340
