13
b3lypvtz=-190433.100955
C       2.72871182     -0.46536301      0.00003374
C       1.59923576     -0.05800956     -0.00005691
C       0.28243267      0.51835407     -0.00018214
N       0.06240855      1.77781987     -0.00000908
C      -0.89605139     -0.41487365      0.00001085
C      -2.25743861      0.22438279      0.00004001
N      -0.64658627     -1.66106754     -0.00004231
H       3.71906404     -0.84843769      0.00011011
H       0.93807780      2.29961859     -0.00000051
H      -3.03337564     -0.54006718      0.00008093
H      -2.37975350      0.86748199      0.87214527
H      -2.37983915      0.86749601     -0.87204390
H      -1.50954008     -2.20579969     -0.00005407
