12
b3lypvtz=-223826.14062501
N      -0.31545103      1.67946510      0.01132630
C      -0.42450956      0.26708985      0.10355176
C       0.62537938     -0.60044916     -0.05516623
N       1.95751363     -0.36473264     -0.24169956
O       0.21726272     -1.86460826      0.06646023
N      -1.19092409     -1.86949673      0.31533636
C      -1.51892342     -0.60666345      0.33627351
H      -0.46205588      2.14422512      0.89866869
H      -0.95747027      2.07691054     -0.66192737
H       2.46901788     -1.08651840     -0.72431445
H       2.15314861      0.57220686     -0.56070344
H      -2.55308798     -0.34742884      0.51219420
