9
b3lypvtz=-261277.9990846
C      -1.19928811     -0.00520368      0.14782539
O      -0.36755209     -1.15053937      0.00339720
C       0.92613261     -0.76217179     -0.14201842
O       1.84839737     -1.49576897     -0.28252972
C       0.92635681      0.77020783     -0.08625695
O       1.84883694      1.51178399     -0.17329460
O      -0.36718169      1.14737844      0.08734162
H      -1.69773918     -0.04046021      1.11562824
H      -1.91796266      0.02477376     -0.67009275
