17
b3lypvtz=-194366.33627985
C       3.04916075      0.03320982     -0.03736269
C       1.60898803     -0.15367387      0.32530432
C       0.57776119      0.31000474     -0.37192080
C      -0.85780060      0.14363966     -0.00764777
C      -1.60846550      1.42291990      0.28371428
C      -1.34918250     -1.13226956      0.52375123
O      -1.58875840     -0.78566380     -0.84393403
H       3.58966119      0.55690283      0.75602448
H       3.16062767      0.60354516     -0.95968477
H       3.54764968     -0.93101077     -0.16985696
H       1.41473973     -0.71461202      1.23556853
H       0.75739883      0.88562568     -1.27713175
H      -2.66429880      1.21526603      0.45507113
H      -1.52821702      2.11049865     -0.56100128
H      -1.19632783      1.92203040      1.16253874
H      -2.22942615     -1.14098584      1.16006478
H      -0.66130928     -1.95732402      0.67532357
