13
b3lypvtz=-234641.80543814
C      -2.44272367     -0.01309909     -0.34827570
N      -1.11060503      0.19674320     -0.89394003
C      -0.11711943     -0.03885177     -0.16107671
N       1.17180577      0.16125694     -0.68319949
N       2.24629312     -0.08027725      0.07369559
N       3.39295758      0.09103988     -0.37071543
O      -0.13657379     -0.47645199      1.11091652
H      -3.17107259      0.10005687     -1.14886923
H      -2.67627272      0.72000617      0.42952214
H      -2.56058202     -1.00704042      0.09242946
H       1.24778984      0.49241580     -1.64119651
H       3.37396956      0.42777493     -1.35328945
H       0.78213339     -0.57357327      1.41576978
