15
b3lypvtz=-191224.36774848
C      -2.01249534     -1.26641505     -0.16685002
C      -1.28993912      0.00002542      0.29773119
C      -2.01264973      1.26637581     -0.16685252
N       0.05175478      0.00008865     -0.27486095
C       1.03843239      0.00003196      0.51500524
C       2.38818688      0.00010750      0.01262139
N       3.48721651      0.00003218     -0.33203352
H      -3.02961284     -1.28130692      0.22664663
H      -2.05874870     -1.29881504     -1.25571456
H      -1.49757161     -2.16248147      0.17992751
H      -1.23841161      0.00002921      1.39644167
H      -1.49782611      2.16250565      0.17990962
H      -3.02976540      1.28115972      0.22665276
H      -2.05891503      1.29875646     -1.25571706
H       0.94798293     -0.00000005      1.60670362
