16
b3lypvtz=-202018.45562953
C       3.06013556     -0.60742171     -0.25154986
C       1.76341190     -0.58218761      0.03107213
C       1.04247423      0.56541274      0.67221905
C      -0.02909605      1.21116930     -0.22913310
N      -1.11841836      0.33561571     -0.61004506
N      -2.09594155      0.12122957      0.26655994
N      -2.82406690     -0.85857635     -0.01003380
H       3.70924439      0.22897853     -0.01820632
H       3.52281082     -1.46671357     -0.71896269
H       1.15919260     -1.45169882     -0.21289641
H       0.54660162      0.22791879      1.58762756
H       1.75928576      1.33924871      0.95843249
H       0.43163906      1.58151095     -1.14619686
H      -0.47052470      2.06271580      0.28842281
H      -0.98307432     -0.39081569     -1.30742752
H      -3.54787405     -0.87762334      0.70992262
