20
b3lypvtz=-182660.77471707
C       2.69390262     -0.27397809      0.16775481
N       1.41071269     -0.56915915     -0.45692870
C       0.27624626      0.00383029      0.24041017
C       0.01823906      1.52078258      0.06100508
C      -1.49508185      1.20344965     -0.04292888
C      -1.12696073     -0.27155565     -0.35556599
C      -1.97699883     -1.39192375      0.21665609
H       2.88759953      0.79907791      0.11590925
H       2.75586576     -0.57105086      1.22701081
H       3.49255669     -0.77835486     -0.37677805
H       1.28994647     -1.57284614     -0.53028728
H       0.27532516     -0.24330723      1.31655738
H       0.42735117      1.86141396     -0.89047611
H       0.34314618      2.19280774      0.85415033
H      -1.99850549      1.29417830      0.92121297
H      -2.07521110      1.74589859     -0.78811394
H      -1.01279317     -0.39438523     -1.43557757
H      -1.53436527     -2.37253842      0.02292266
H      -2.09052277     -1.28542999      1.29817949
H      -2.97710139     -1.39366664     -0.22304552
