20
b3lypvtz=-182670.60676768
C       0.34633732      2.27376185      0.34171730
C       0.00141693      1.23166636     -0.73326416
C      -0.28211571     -0.15808799     -0.20519300
C      -1.54805310     -0.54326872      0.03402467
C      -2.00947290     -1.87039944      0.56457278
N       0.81318650     -1.01739060     -0.06828931
C       2.14170321     -0.55663928      0.29855073
H       0.50291889      3.25424908     -0.11249193
H       1.25036609      2.01673755      0.89394688
H      -0.46722327      2.36168935      1.06258674
H       0.80304197      1.18537079     -1.47500206
H      -0.88691808      1.56820991     -1.26811279
H      -2.32708689      0.17380796     -0.19301693
H      -2.32217902     -1.81036721      1.61290171
H      -2.87265130     -2.23472498      0.00204326
H      -1.25027914     -2.65248371      0.50027275
H       0.57433061     -1.88367139      0.38580961
H       2.49269835      0.20452506     -0.39639252
H       2.83083556     -1.39825057      0.22944438
H       2.20914400     -0.14473402      1.31467893
