14
b3lypvtz=-203670.59649555
N       3.11874143      0.89788049     -0.24056404
C       2.53946631     -0.31760290      0.34265178
C       1.10304720     -0.52027748      0.11416096
C      -0.07063757     -0.66900003     -0.10419171
C      -1.50069206     -0.80702062     -0.34312920
C      -2.31551948      0.29551819      0.32539612
O      -3.26671536      0.82092001     -0.18438656
H       2.96920477      0.90159218     -1.24312699
H       2.63840072      1.71415226      0.12079002
H       2.73380992     -0.30438554      1.41769377
H       3.08778429     -1.17731901     -0.04999706
H      -1.74309246     -0.81554693     -1.40722097
H      -1.85792770     -1.75728293      0.07491020
H      -1.97112301      0.57673432      1.34033769
