15
b3lypvtz=-219531.65152223
C       1.67738777     -1.41846322     -0.00000383
C       1.16709882      0.00689118     -0.00000025
N       1.93073449      1.03017587      0.00000138
C      -0.29372855      0.25492871     -0.00000128
C      -0.77219314      1.67836611     -0.00000090
C      -1.13810622     -0.77566753      0.00000473
F      -2.47416314     -0.60801828      0.00000257
H       1.33247935     -1.96434762      0.88024963
H       1.33249383     -1.96433929     -0.88026813
H       2.76627049     -1.42596090      0.00000532
H       2.91119596      0.75124041      0.00000238
H      -0.38737496      2.20652771     -0.87264119
H      -0.38735642      2.20653405      0.87262722
H      -1.85799637      1.72895799      0.00000982
H      -0.87377293     -1.82218220     -0.00000549
