22
b3lypvtz=-183429.15046067
C      -0.00001412      2.20502728     -0.22526175
C      -0.00000447      0.99022304      0.70145071
N       0.00000203     -0.29618878     -0.01285721
C      -1.21590928     -1.07798755      0.20076153
C      -2.45655517     -0.44750417     -0.42446672
C       1.21592097     -1.07797548      0.20076243
C       2.45656009     -0.44748156     -0.42446866
H       0.87999137      2.20427693     -0.86885042
H      -0.00001828      3.13192735      0.35410604
H      -0.88002255      2.20426660     -0.86884635
H      -0.87154045      1.04132782      1.36243775
H       0.87153426      1.04133882      1.36243310
H      -1.40043368     -1.25784381      1.27564268
H      -1.05908794     -2.05830668     -0.25288924
H      -2.69733083      0.51682405      0.02494599
H      -2.30853993     -0.29453696     -1.49425070
H      -3.32107822     -1.09884482     -0.28262630
H       1.05910858     -2.05829726     -0.25288571
H       1.40044804     -1.25782730      1.27564384
H       2.30854274     -0.29451985     -1.49425313
H       2.69732577      0.51685093      0.02494028
H       3.32109007     -1.09881257     -0.28262617
