12
b3lypvtz=-226251.99418388
N      -1.58851038      1.36442843     -0.12394195
C      -0.50250073      0.73719953      0.01070255
C       0.92204332      1.20481547      0.17597752
C       1.73464561     -0.05700890     -0.14363799
O       0.83275397     -1.17561068      0.00370295
C      -0.47107943     -0.78284579      0.02430127
O      -1.38296075     -1.54951260      0.06111392
H      -1.43955230      2.37516049     -0.11975928
H       1.08021168      1.51726796      1.21089017
H       1.16713472      2.04581479     -0.47065527
H       2.10523898     -0.05550870     -1.16935859
H       2.56988231     -0.22161201      0.53251371
