16
b3lypvtz=-181109.73407984225
C      -2.01593180     -1.31177037      0.16697422
C      -1.42905501      0.04097250      0.20622131
C      -1.53581208      1.32191745      0.09159067
C      -0.16723947      0.82480658      0.46792596
C       1.00359599      0.85741903     -0.51442235
C       1.98679177     -0.24603805     -0.25931506
N       3.18356423     -0.01728371      0.08909130
H      -1.49763217     -1.93886768     -0.56262143
H      -3.07432272     -1.28113107     -0.09343372
H      -1.90932444     -1.80250626      1.13785094
H      -2.13395149      2.19228096     -0.11131580
H       0.15818313      0.94424413      1.50336613
H       0.61078693      0.75781011     -1.53192144
H       1.53512238      1.80909884     -0.44761790
H       1.58874829     -1.26355808     -0.37486764
H       3.69647645     -0.88739436      0.23249480
