14
b3lypvtz=-203650.05624049
C       1.41155943      0.13469299     -0.49865893
O       0.52626722     -0.66850542     -1.29790903
C      -0.70468862     -0.71017160     -0.58647820
C      -1.23305920      0.71159798     -0.29972149
N      -0.58562296      0.71911210      1.06000121
C      -0.34984590     -0.76434774      0.91384428
C       0.78903098      0.16103951      0.88514156
H       2.39655528     -0.33546682     -0.48325641
H       1.51325306      1.13419933     -0.93281343
H      -1.35577106     -1.44892497     -1.04313783
H      -2.31236853      0.75176564     -0.16042707
H      -0.92042898      1.50520537     -0.98075007
H      -0.59216983     -1.49538318      1.67149517
H       1.41738909      0.30518680      1.75257023
