11
b3lypvtz=-236305.48142175755
C      -2.00694841     -0.25427316      0.31766298
O      -0.79334710      0.51348529      0.30413840
C       0.30727428     -0.15605751     -0.10915900
C       1.46179432      0.72686833     -0.07514902
N       2.61418259      0.23415884     -0.44190246
N       3.59653310     -0.20732657     -0.76110851
O       0.31359914     -1.31598671     -0.45266286
H      -1.91626977     -1.10287441      0.99402142
H      -2.77823759      0.42747501      0.66352651
H      -2.24036309     -0.62070550     -0.68077532
H       1.44178254      1.75523639      0.24140788
