11
b3lypvtz=-262173.44968844
N      -2.63948751      0.06079612      0.05628640
N      -1.41777913     -0.52446479      0.17136201
C      -0.38106257      0.16352172     -0.07097722
F      -0.46781782      1.48316431     -0.36858557
C       0.94508989     -0.40915501     -0.03895844
N       1.97186632      0.31027629     -0.27077726
O       3.13946718     -0.44708737     -0.18229531
H      -2.66350712      1.06641557      0.17781654
H      -3.32535328     -0.43246453      0.60391208
H       1.01065462     -1.46814434      0.19218750
H       3.82792940      0.19714204     -0.37777074
