14
b3lypvtz=-255307.61634483
C      -0.02816552      0.90261470      1.32740361
C      -0.05371272      0.27453935     -0.07241957
O       0.42955948      1.18213142     -1.05778130
C      -1.49855461     -0.01853232     -0.46525149
O      -2.15178144     -0.90608390      0.01624855
C       0.74482776     -1.02751863     -0.12105716
F       2.08419244     -0.73796048      0.16286105
H       1.00339813      1.07738058      1.63386406
H      -0.50222740      0.24330583      2.05420381
H      -0.55485080      1.85623342      1.31703908
H       1.37246409      1.31093310     -0.90665259
H      -1.90409715      0.66775101     -1.23386057
H       0.71115039     -1.46307664     -1.11994447
H       0.38208536     -1.74308644      0.61489700
