12
b3lypvtz=-252160.85283786
C      -2.44976768     -0.77957685     -0.16500633
N      -1.61662121      0.39954093     -0.00493735
C      -0.28545351      0.33071091      0.12187114
F       0.24925232      1.56326197      0.20666513
N       0.38484221     -0.74218187      0.22212339
C       1.77112631     -0.79175086      0.15729714
O       2.48535332     -0.12323684     -0.55012909
H      -3.48653076     -0.49705470      0.00254691
H      -2.35208410     -1.20936913     -1.16352292
H      -2.15948244     -1.53432461      0.56345781
H      -2.02108374      1.31706621     -0.06937619
H       2.17483628     -1.59024315      0.80018237
