16
b3lypvtz=-204455.96077804
C       2.78698960     -0.81536153     -0.30002138
C       1.95038235      0.21408112     -0.32356307
C       0.92781370      0.51649414      0.73806368
C      -0.47695911      0.48809016      0.13513270
O      -0.89243938      1.40272178     -0.53745139
C      -1.31109951     -0.75995426      0.40615998
N      -2.59380035     -0.84248802     -0.26261027
H       2.79945360     -1.52237830      0.52143341
H       3.49731208     -0.98228531     -1.09886573
H       1.96349026      0.90300508     -1.16171960
H       1.01355040     -0.19739121      1.55929586
H       1.08568637      1.52477360      1.12923444
H      -0.70158210     -1.63355849      0.15264984
H      -1.45544681     -0.82066326      1.49177960
H      -2.45454359     -0.85655628     -1.26675465
H      -3.12529450      0.00174778     -0.07994242
