11
b3lypvtz=-264620.03878332
C       1.23608512     -0.07461672     -0.20186836
C       0.20383555      0.75451393     -0.07005092
N      -1.14786154      0.43829328      0.11190009
C      -1.69930343     -0.80505522      0.19384898
O      -1.08723328     -1.84959412      0.11957771
F       0.36503941      2.09320797     -0.10038606
O       2.50087157      0.41989329     -0.37318553
H       1.06924903     -1.13894184     -0.17273019
H      -1.76040395      1.23489370      0.18785719
H      -2.79055934     -0.75453120      0.33871657
H       3.11028084     -0.31806305     -0.44835650
