16
b3lypvtz=-181110.41956492
C       1.85058338     -0.64048322     -0.03657547
C       0.77681111      0.42804897     -0.07822628
C      -0.54173292      0.21440021     -0.90700186
C      -1.16153282      1.34324536     -0.01986255
C      -0.37242651      0.45223054      0.99535578
C      -0.96517178     -0.71658181      0.22996815
N      -1.50607344     -1.81612930      0.50134132
H       2.40450627     -0.66882647     -0.97745078
H       1.43353560     -1.63253955      0.14128242
H       2.56835128     -0.43210800      0.75955636
H       1.20406536      1.41951223     -0.24298346
H      -0.64019646      0.07974987     -1.98154016
H      -0.74580461      2.33745043     -0.18249362
H      -2.24506475      1.36112868      0.07560917
H      -0.28092776      0.58410964      2.06966039
H      -1.77892195     -2.31340758     -0.34673941
