12
b3lypvtz=-280451.36266214
N      -2.32107859      0.92291149     -0.46930875
C      -2.08534554     -0.27282730     -0.15591407
O      -1.01209597     -0.84523709      0.45981545
C       0.08069880     -0.02577897      0.85312767
C       1.07587676      0.15669311     -0.27971002
F       1.66339708     -1.03374804     -0.58074885
F       2.05545775      1.00947260      0.14780694
H      -1.58422084      1.58002094     -0.22439570
H      -2.80864772     -1.05373972     -0.37120164
H       0.57996214     -0.54708269      1.66794439
H      -0.25001426      0.95168335      1.20953992
H       0.64174839      0.55912031     -1.19660934
