14
b3lypvtz=-226981.91093233
C       2.65206830      0.63688299      0.00015045
C       2.06332016     -0.56209191      0.00001694
N       0.72119179     -0.91793843     -0.00012648
C      -0.42363516     -0.13618320     -0.00011095
O      -0.20237456      1.20324738     -0.00023378
C      -1.66813261     -0.63615205     -0.00004800
O      -2.71844050      0.28883762     -0.00030443
H       3.73113278      0.67129254      0.00024081
H       2.11014761      1.56637688      0.00016558
H       2.68726097     -1.44820569      0.00000326
H       0.54062178     -1.90515282     -0.00018936
H      -1.07032456      1.62886100     -0.00017190
H      -1.89958177     -1.68912123      0.00008947
H      -3.55610423     -0.17640708      0.00078637
