13
b3lypvtz=-216141.83925744
C       1.56594156     -0.18869526      0.31854868
C       0.36723677     -1.10583023     -0.07593104
C      -0.48860231      0.14719372     -0.31164924
C       0.73582911      1.03325138     -0.12080359
O       0.96692031      2.19354939     -0.28655725
C      -1.87385556      0.44887056      0.07500486
O      -1.48992988      0.31536078     -1.29371300
H       2.49077090     -0.32698525     -0.23956799
H       1.79746179     -0.17194650      1.38387842
H       0.53949091     -1.66053039     -0.99676585
H       0.01045166     -1.78602175      0.69405783
H      -2.49068306     -0.35392031      0.46644607
H      -2.13103223      1.45570389      0.38705209
