14
b3lypvtz=-203697.7007005
O      -2.74230770      0.12641893     -0.04517658
C      -1.65127508     -0.14577690      0.38082345
C      -0.37208658     -0.08954785     -0.42569350
C       0.44081909      1.16161787     -0.09729391
N       1.66405383      0.98782785      0.16910166
C       1.98583702     -0.44096737      0.08474848
C       0.64321285     -1.19800489     -0.07917157
H      -1.51183927     -0.44756919      1.44168589
H      -0.65712419     -0.06638656     -1.48069569
H       0.00036557      2.15419422     -0.11918571
H       2.53981520     -0.74095972      0.97477982
H       2.65525967     -0.58562780     -0.76678815
H       0.68331531     -1.97224448     -0.84246770
H       0.36358627     -1.68065211      0.85986251
