17
b3lypvtz=-191950.15623132
C      -1.13337617     -1.54024747     -0.57265414
C      -0.50861096     -0.51023079      0.35509745
C       0.85236846      0.08766709     -0.14263209
N       1.95327534      0.00948958      0.81203272
C       0.18315921      1.46912863     -0.23646083
N      -0.36587695      1.86831471      1.04839513
C      -1.11093808      0.90026447      0.26031323
H      -2.14357699     -1.79746762     -0.24721650
H      -0.54693235     -2.46141262     -0.59491717
H      -1.20206236     -1.16270922     -1.59539645
H      -0.46467419     -0.89595223      1.37763654
H       1.09270155     -0.30266603     -1.13892394
H       2.21532464     -0.95553289      0.97869174
H       2.77666714      0.48090894      0.45338468
H       0.37780596      2.22993448     -0.98040700
H       0.15080987      1.43987318      1.81285775
H      -2.12616413      1.14053779     -0.02810112
