19
b3lypvtz=-192735.91238721
C      -3.38663633     -0.21673010      0.53384739
N      -2.30612444     -0.26685119     -0.43774354
C      -1.12852727      0.41453897     -0.16208761
C       0.10688882      0.07084616     -0.54171464
C       1.32466782      0.91305137     -0.30076745
C       2.38319634      0.25752864      0.60932325
N       2.98325815     -0.98814768      0.12877647
H      -3.61471798      0.82424733      0.76759787
H      -4.28342313     -0.66207023      0.10388921
H      -3.16025783     -0.73228311      1.47675046
H      -2.15955440     -1.18501607     -0.83090410
H      -1.28867990      1.34552368      0.37492514
H       0.24674414     -0.86367710     -1.07953265
H       1.80827540      1.16137580     -1.25484264
H       1.02554143      1.86641700      0.14637942
H       1.93596924      0.05442268      1.58543503
H       3.19348126      0.97205960      0.77799836
H       2.27526427     -1.70471215      0.02154105
H       3.40187641     -0.85138559     -0.78483101
