16
b3lypvtz=-202033.57029962
N       3.18852835      0.25863067     -0.26258657
C       2.25146765      1.11073974     -0.13634877
N       0.89057393      0.92870193     -0.16494130
C       0.26264406     -0.37823389     -0.20183388
C      -1.21542435     -0.25133448     -0.47203858
C      -2.16984922     -0.10412859      0.65478130
N      -2.12184323     -1.34929245     -0.12877192
H       2.83991092     -0.69321587     -0.36499994
H       2.52306222      2.15902067     -0.00882526
H       0.32673464      1.68788943      0.18009024
H       0.41760373     -0.93145690      0.73630324
H       0.72975831     -0.96451834     -0.99844327
H      -1.45686666      0.22993624     -1.41375044
H      -3.07430175      0.47773693      0.53119187
H      -1.76615541     -0.11181771      1.66124016
H      -1.62574319     -2.06855737      0.38883311
