17
b3lypvtz=-191968.5847664
C       1.57969343      1.24042563     -0.44547897
C       0.96519076      0.14131726      0.00283781
N       1.64030616     -0.96144347      0.54199199
C      -0.51245151     -0.10076534     -0.13992123
N      -0.90916290     -1.12793928     -1.08727836
C      -1.37193034     -0.01198300      1.10072683
C      -1.48051386      1.03123371      0.01514978
H       2.64935421      1.37669704     -0.34625952
H       1.02436361      2.01738017     -0.94726715
H       2.61349625     -0.80006401      0.75364837
H       1.16051174     -1.39936255      1.31548220
H      -0.41204996     -1.98934360     -0.88734849
H      -0.62920261     -0.84869204     -2.02215707
H      -2.17222182     -0.73266414      1.18924619
H      -0.90278207      0.28318430      2.02974541
H      -2.35675194      1.00162612     -0.61602696
H      -1.09213516      2.01632521      0.22615918
