10
b3lypvtz=-223054.61320251445
C       0.84613635      0.12688889      0.61498664
N       1.64535506     -0.80601600      0.15425459
N       2.38305393     -1.58186867     -0.18654648
C      -0.47754268      0.38317504      0.10324006
N      -1.29363728      1.28127374      0.52099561
C      -1.01440279     -0.44818515     -1.03128689
O      -0.40983467     -1.34123485     -1.56702723
H       1.26293732      0.70375985      1.42662319
H      -0.90669672      1.83034786      1.28890387
H      -2.03536851     -0.14814070     -1.32414334
