13
b3lypvtz=-237031.82321735
N      -2.46860494     -0.69603667      0.94988238
C      -1.54312615     -0.71351111      0.09401797
C      -0.52767376      0.38712979     -0.16132954
O      -0.81267898      1.45993929      0.72670333
C       0.87114188     -0.12409771      0.04257618
N       1.67667656     -0.12685539     -0.93760111
O       2.93060457     -0.62952643     -0.58038627
H      -2.44637716      0.18557396      1.46853442
H      -1.42754851     -1.58866686     -0.54804704
H      -0.62358505      0.69456049     -1.20966126
H      -0.22253552      2.19206618      0.52449003
H       1.16443556     -0.46893561      1.03310957
H       3.42917150     -0.57153993     -1.40228865
