13
b3lypvtz=-213780.56362723
C      -2.04026133     -0.01548496     -0.20857086
C      -0.55871023      0.03790756     -0.04311961
C       0.41608635     -0.91352306     -0.26553218
C       1.62311982     -0.26575014      0.07248910
N       1.43934856      0.97798010      0.47201800
N       0.09040707      1.14354394      0.39306123
O       2.85501479     -0.81964723      0.00938820
H      -2.34089944     -0.99761564     -0.56771404
H      -2.55751140      0.16797663      0.73606536
H      -2.39181251      0.72624869     -0.92955285
H       0.28363481     -1.92076296     -0.61709065
H      -0.30577835      2.02884051      0.65100426
H       3.48736188     -0.14971347      0.29755404
