16
b3lypvtz=-181151.89642884
C       2.21157437     -0.27551983     -0.66763263
C       0.87231952     -0.74064441     -0.15028081
C       0.44285101     -0.52631468      1.26790520
C      -0.26604189      0.23352227      0.15536958
C      -0.09085571      1.73765908      0.03043552
C      -1.58650166     -0.22877124     -0.19194224
N      -2.64359118     -0.58943446     -0.47614746
H       2.96443829     -1.04662582     -0.49305731
H       2.55545815      0.63205624     -0.17287565
H       2.17730597     -0.08297575     -1.74150247
H       0.53355443     -1.67052220     -0.58987734
H       1.08149255      0.07088470      1.90572412
H      -0.09891751     -1.31027755      1.77658626
H      -0.81870163      2.25739477      0.65439504
H       0.90300119      2.04266026      0.35154416
H      -0.23397691      2.06580061     -0.99987098
