13
b3lypvtz=-216171.12251414
C       2.98769696     -0.52194453     -0.00000747
C       1.70892470      0.23875652      0.00000601
C       0.48534199     -0.29919025      0.00001577
C      -0.71995480      0.53965115      0.00001918
O      -0.74394085      1.75619393      0.00000373
C      -2.07296889     -0.18462173     -0.00000951
O      -2.19840468     -1.38027550     -0.00001477
H       3.58939534     -0.25658433      0.87416986
H       2.82717264     -1.59921380     -0.00001039
H       3.58938071     -0.25657735     -0.87419268
H       1.77875300      1.32293574      0.00000695
H       0.33158262     -1.37073276      0.00001782
H      -2.93143875      0.51381791     -0.00002650
