16
b3lypvtz=-202026.6755832
C      -3.75087096      0.22663425      0.20088731
N      -2.55867242      0.62679465      0.41692994
N      -1.53655261     -0.19961490      0.15514240
C      -0.23166282      0.20853092      0.35671438
C       0.85533904     -0.52279928      0.09880516
C       2.24863445     -0.03740312      0.34612789
N       3.03711735     -0.06713060     -0.89579688
H      -4.55859854      0.90879114      0.42241571
H      -3.98942766     -0.76374104     -0.19325389
H      -1.72301502     -1.12438450     -0.21772907
H      -0.16990526      1.20921775      0.76468577
H       0.76008698     -1.51695842     -0.32723020
H       2.20430441      0.95180910      0.82394489
H       2.75397847     -0.70265560      1.05417300
H       2.66172023      0.60216727     -1.55815442
H       3.99752436      0.20074237     -0.71282214
