10
b3lypvtz=-279650.74629753
C      -1.98011549      0.08942852      0.41982306
C      -0.80761083     -0.44836623      0.08140201
C       0.48232673      0.18834976      0.22708745
N       1.54408150     -0.42135821     -0.13035019
O       2.66979360      0.36570611      0.09427873
F      -0.82455400     -1.68746667     -0.43949050
F      -2.04814677      1.32286540      0.94647085
H      -2.93328279     -0.40311920      0.30284321
H       0.50716049      1.19013997      0.64656048
H       3.39034755     -0.19617948     -0.21035218
