13
b3lypvtz=-169503.22731597
C      -3.70430284     -0.00003352     -0.22538876
C      -2.51295568      0.00000155     -0.03719033
C      -1.16760791      0.00002888      0.17565680
C       0.02724663      0.00012192      0.36515165
C       1.43772522      0.00018803      0.59022602
C       2.36465828      0.74686988     -0.35618094
C       2.36464989     -0.74713885     -0.35567837
H      -4.75247673     -0.00004664     -0.39030337
H       1.72907496      0.00053830      1.63347709
H       1.90371300      1.25643206     -1.18936547
H       3.20051465      1.26615152      0.09069880
H       3.20050072     -1.26612822      0.09155173
H       1.90370183     -1.25725691     -1.18852085
