14
b3lypvtz=-201297.38630031
C      -2.53825474      0.37109959      0.01490250
N      -1.48612822     -0.62916610     -0.07846949
C      -0.17440118     -0.18556338     -0.01116684
C       0.37732166      1.08336126      0.00148684
C       1.77276026      0.85959191      0.01038861
N       2.08153681     -0.42492796      0.00955563
N       0.87307242     -1.05055169     -0.00546405
H       0.83946292     -2.05129655     -0.08055190
H      -2.45702739      1.06403573     -0.82278594
H      -2.50679579      0.95252558      0.94453865
H      -3.50393856     -0.12652822     -0.05443016
H      -1.66319237     -1.44146694      0.49376174
H      -0.14389282      2.02303889      0.01380658
H       2.56042502      1.59589688      0.02580183
