16
b3lypvtz=-204441.4129498
C      -3.23541226     -0.63517230      0.22761793
O      -2.28316227      0.24321395     -0.35085451
C      -0.98817832      0.00817714      0.01072383
C      -0.05458747      0.96200344     -0.04106606
C       1.36996635      0.75145283      0.18345716
C       2.06072038     -0.33459603     -0.19688922
N       3.42198830     -0.54745004     -0.00397637
H      -2.98981563     -1.68130110      0.01521127
H      -3.29753566     -0.49762309      1.31155799
H      -4.19780983     -0.39805095     -0.22014782
H      -0.76283276     -1.01234392      0.31221760
H      -0.38698611      1.97089249     -0.26533421
H       1.90747010      1.55721155      0.67740317
H       1.57244779     -1.11085307     -0.77460148
H       3.71490193     -1.51029941     -0.01062237
H       3.84407746     -0.02934549      0.75099710
