18
b3lypvtz=-228511.09636839
C       0.81313653      0.05318957     -0.65442361
C       2.10711638      0.71869925     -0.23430833
O       2.82718765     -0.21088186      0.57856545
N      -0.01023833     -0.24590829      0.51242773
C      -1.23534203     -0.99588488      0.23305408
C      -2.34535953     -0.04283948     -0.20408624
O      -2.51482379      0.99752924      0.74240383
H       1.05183954     -0.85088225     -1.23638664
H       0.27459812      0.73195491     -1.31968622
H       2.68642208      0.98806378     -1.12439879
H       1.88266722      1.63135280      0.32752696
H       3.56968169      0.24005255      0.98882416
H       0.56176792     -0.73592034      1.18713538
H      -1.09249590     -1.77823715     -0.52799150
H      -1.54408191     -1.48432991      1.15893342
H      -3.29093975     -0.58237603     -0.28158816
H      -2.12200538      0.36859053     -1.19824724
H      -1.61913051      1.19782755      1.05224572
