13
b3lypvtz=-239451.18848515
C      -2.57337183      0.59799036     -0.00389180
C      -1.41697787      0.05936560     -0.36922001
O      -1.16375076     -0.38738293     -1.62350145
O      -0.39492505     -0.11693608      0.53589176
C       0.88063837      0.20576345      0.09615817
C       1.87424942     -0.66697712      0.24337193
O       3.18692459     -0.44608118     -0.03371657
H      -2.69184400      0.98089504      0.99556520
H      -3.39516629      0.63828524     -0.69962359
H      -0.33111816     -0.87686892     -1.62223454
H       1.01216803      1.21279227     -0.28866792
H       1.69996482     -1.65677490      0.64248744
H       3.31320875      0.45592917     -0.35040787
