16
b3lypvtz=-232751.0727819
C      -2.09504945     -0.58915702      0.08828497
C      -1.07795224      0.51669438     -0.05289323
C       0.12019080      0.57342204      0.91599561
C       0.97970933      0.55784975     -0.35823682
O      -0.18064373      0.31574082     -1.18738536
C       2.00035392     -0.54259423     -0.53907040
F       3.11803034     -0.26812347      0.24908683
H      -2.73328541     -0.40750787      0.95618999
H      -1.60634772     -1.55657347      0.21162143
H      -2.73163696     -0.63542294     -0.79685294
H      -1.58207072      1.48304822     -0.15642830
H       0.19841236      1.45663165      1.54463555
H       0.23200618     -0.31943907      1.53072556
H       1.44337611      1.52244130     -0.58975945
H       2.31912389     -0.59746346     -1.58218117
H       1.59578328     -1.50954662     -0.23373225
