14
b3lypvtz=-231999.33186264
C      -2.16240060      0.75582820     -0.00000415
C      -1.15527341     -0.12521665     -0.00000273
O      -1.36303953     -1.48167377     -0.00000310
C       0.26637780      0.24128734      0.00000001
C       0.65328493      1.69363224      0.00000216
C       1.17895467     -0.72985734     -0.00000048
F       2.50014736     -0.46139155      0.00000546
H      -1.98089186      1.81725273     -0.00000470
H      -3.19392998      0.42817431     -0.00000609
H      -2.31036674     -1.65149512     -0.00000661
H       0.25763257      2.20397284      0.88021950
H       1.73436401      1.80328666      0.00000426
H       0.25763584      2.20397491     -0.88021547
H       0.97310494     -1.78793578      0.00000293
