13
b3lypvtz=-237071.68880638
C      -1.73254564      0.26090334      1.23739675
C      -1.25472541      0.06887230      0.01202057
O      -1.99296049     -0.01075249     -1.12758190
O       0.03756202     -0.09006159     -0.40477852
C       1.15034607     -0.06641760      0.38696872
N       2.24719089     -0.10161095     -0.45153037
N       1.11841295      0.01232225      1.64911441
H      -2.79986685      0.37586271      1.36549393
H      -1.08031852      0.30143338      2.08809788
H      -2.92077249      0.08070368     -0.88865781
H       3.10241200     -0.43776362     -0.04404211
H       2.07072956     -0.42158745     -1.38994088
H       2.05443589      0.02809604      2.04123933
