18
b3lypvtz=-181906.36088355
C      -2.88731083     -1.06560173      0.24067079
C      -1.77361273     -0.58796409     -0.30115253
C      -1.40386914      0.86264672     -0.37544471
C      -0.09274174      1.20288467      0.35310777
N       1.04914207      0.57816474     -0.29192646
C       1.83381222     -0.12171840      0.40700866
C       3.03977806     -0.79459042     -0.16678330
H      -3.09859473     -2.12686326      0.26313604
H      -3.63352149     -0.41118880      0.67734901
H      -1.05554000     -1.28096177     -0.72884742
H      -1.28376435      1.15610462     -1.42288264
H      -2.20685261      1.47199557      0.04574049
H       0.05292519      2.28550873      0.29808873
H      -0.17118333      0.92881846      1.41520001
H       1.66324152     -0.26535758      1.48494229
H       2.99179043     -1.87421485     -0.00050174
H       3.11478199     -0.59636219     -1.23402001
H       3.94701047     -0.44100942      0.33096802
