15
b3lypvtz=-170272.70033519
C      -3.09230695      1.22485288      0.00000238
C      -2.43446600      0.22337130      0.00001206
C      -1.64644655     -1.01152490      0.00002952
C      -0.19862442     -0.78980720      0.00001347
C       0.99067954     -0.62426318      0.00000066
C       2.43136783     -0.38784873     -0.00001178
C       2.79751447      1.10442832     -0.00000987
H      -3.66897773      2.11576190     -0.00001014
H      -1.92487753     -1.60999073      0.87388498
H      -1.92489167     -1.61002490     -0.87379805
H       2.87393755     -0.87399173      0.87419206
H       2.87392170     -0.87398499     -0.87422736
H       2.39369619      1.60216088     -0.88146297
H       3.88112653      1.22941341     -0.00001845
H       2.39371103      1.60215469      0.88145351
