15
b3lypvtz=-237793.5098794
N       2.46029254     -0.58777899      0.14971223
C       1.19109649      0.08659188      0.42989692
C       0.53099222      0.45107419     -0.89556371
O      -0.63512572      1.28022178     -0.71595257
C      -1.79400721      0.68432026     -0.40667439
N      -1.91413325     -0.56606289     -0.22760789
O      -3.26505109     -0.88782483      0.05993147
H       2.78839368     -1.08905741      0.96453495
H       3.18073890      0.08172203     -0.09307818
H       0.54454718     -0.60318620      0.97035913
H       1.28558974      0.99598368      1.03776258
H       1.20466148      1.05956406     -1.49869177
H       0.26731916     -0.44875829     -1.44928887
H      -2.62034217      1.38458916     -0.33019143
H      -3.22507195     -1.84149842      0.17475153
