12
b3lypvtz=-223846.51781545
N       0.69484557      1.47082559     -0.14230042
C       0.54071234      0.20691744     -0.08933942
C       1.71776368     -0.74276909      0.02803662
O       2.85432585     -0.36093794      0.13618910
N      -0.67615949     -0.45948236     -0.17420910
C      -1.73028602      0.19461950      0.15947927
N      -2.96476444     -0.31257310      0.00935534
H       1.69092142      1.68381647     -0.06063044
H       1.45430573     -1.81583988      0.00993168
H      -1.68487591      1.19884210      0.58415658
H      -3.77255408      0.18175130      0.33806854
H      -3.07935765     -1.22982801     -0.38833574
