16
b3lypvtz=-204440.44297076
N       2.06968112     -0.28755908     -0.43729507
C       0.73630755     -0.09431595      0.05697692
C      -0.21292515     -1.26802454      0.26144011
O      -1.52819226     -0.72185809      0.27543673
C      -1.53674899      0.45058541     -0.55008873
C      -0.14035569      1.02037479     -0.46077175
C       0.46088663      1.10530291      0.91862558
H       2.65274384     -0.74974223      0.25091276
H       2.07364721     -0.85797465     -1.27559832
H      -0.07094686     -1.80327584      1.20316991
H      -0.08539063     -1.98188885     -0.56664951
H      -1.77821235      0.19343355     -1.59006060
H      -2.32053813      1.10478489     -0.16492839
H       0.22091610      1.68035992     -1.23605074
H       1.28396566      1.79376090      1.04456534
H      -0.19267605      0.99098586      1.77413676
