20
b3lypvtz=-182676.58839506
C      -3.08329522      0.56891087     -0.01723109
C      -2.23393622     -0.51445062     -0.68477354
C      -0.86388461     -0.74277594     -0.03576340
C       0.10603366      0.43077410     -0.19478899
N       1.36507918      0.15331865      0.47492768
C       2.42860135      0.16607947     -0.20441100
C       3.77136716     -0.11253912      0.39348163
H      -2.61751755      1.55331012     -0.08044215
H      -3.24134132      0.34607181      1.04027410
H      -4.06413652      0.64355052     -0.48984925
H      -2.09831365     -0.27147830     -1.74355691
H      -2.78508891     -1.45807349     -0.66247185
H      -0.98525620     -0.95334419      1.03018408
H      -0.40059923     -1.63090547     -0.47442996
H      -0.31903630      1.32256260      0.27300822
H       0.24834315      0.65510611     -1.26376585
H       2.41387854      0.38858526     -1.28295690
H       3.67801512     -0.32057653      1.45726543
H       4.43900982      0.74156346      0.24956050
H       4.24207775     -0.96568933     -0.10246582
