16
b3lypvtz=-204451.59747876
C      -0.13780161     -0.84985264     -0.71744301
C       0.98681736      0.21030947     -0.62612481
C       0.35719570      1.28999455      0.22931284
C      -0.79632870      0.91001321      0.76647229
C      -1.19863003     -0.48054730      0.33617434
O      -2.49381691     -0.54145657     -0.27686495
N       2.23118507     -0.35990267     -0.07535480
H       0.26404716     -1.85296364     -0.58781590
H      -0.62495791     -0.80947109     -1.69114842
H       1.24613057      0.59104147     -1.61651327
H       0.84512295      2.24166178      0.40385634
H      -1.39637079      1.49712668      1.45124511
H      -1.18232615     -1.16952947      1.19065451
H      -3.16187250     -0.40161229      0.40119762
H       2.96918023      0.33588204     -0.08645833
H       2.09242557     -0.61069352      0.89881044
