13
b3lypvtz=-192805.69769698
C       3.25419062     -0.16292427     -1.17008665
C       2.44602147     -0.20013651     -0.28658236
C       1.47229283     -0.24548764      0.80644095
C       0.07815086     -0.19813931      0.36309115
C      -1.07164934     -0.16278880      0.01834396
C      -2.46041030     -0.09274228     -0.43386209
O      -2.96524261      1.23608602     -0.52706972
H       3.96679425     -0.13058314     -1.95588782
H       1.63281928     -1.15658405      1.39231518
H       1.66259025      0.58718149      1.49152198
H      -3.10908314     -0.60650121      0.27744275
H      -2.55302500     -0.61815132     -1.39219088
H      -2.35354918      1.75107100     -1.06307646
