12
b3lypvtz=-249565.36875309
C       0.30541209     -0.90643729     -0.09657759
C       1.68071753     -0.26084721     -0.03364897
O       2.70855448     -0.87666305      0.07747261
O       1.63618441      1.08024749     -0.17318557
N      -0.74292896     -0.10962833      0.49789454
C      -1.66963153      0.30697783     -0.24318479
O      -2.68738466      1.05430196      0.21483545
H       0.39510044     -1.85596672      0.42978686
H       0.12639017     -1.13692942     -1.15831350
H       2.55380067      1.39101572     -0.15235277
H      -1.76905938      0.12246681     -1.31483927
H      -2.53715524      1.19146224      1.16248474
