16
b3lypvtz=-202050.75696207
N       3.07391144      0.94066867      0.09329808
C       2.64147476     -0.25237497      0.14112272
N       1.35519976     -0.74681067      0.02718945
C       0.19798830     -0.00761577     -0.17946415
C      -1.03373550     -0.51455008     -0.25056689
C      -2.25817257      0.31129181     -0.49129400
N      -3.23762164      0.10490291      0.58414080
H       2.33727053      1.62905435     -0.04888373
H       3.36221900     -1.05482304      0.29384382
H       1.25209406     -1.74487518      0.10932208
H       0.35989760      1.05598244     -0.29626496
H      -1.19586458     -1.57987466     -0.11598661
H      -1.96356163      1.36060014     -0.63685208
H      -2.73890967     -0.00875175     -1.42160307
H      -4.10199427      0.59162815      0.37777421
H      -2.88299059      0.48011367      1.45626932
