13
b3lypvtz=-211320.57548570345
C      -2.78804886     -0.27803777      0.25245132
N      -1.51534253     -0.08339800      0.05034375
C      -0.82019929      0.44543817     -0.99069866
N       0.51155602      0.51412563     -0.90652637
N       1.02406851      0.05886925      0.18608603
C       2.40577507      0.15851705      0.21100681
N       3.05917344     -0.24920250      1.22544531
H      -3.50259104      0.00748421     -0.50416449
H      -3.10342445     -0.72458221      1.18019699
H      -0.83243034     -0.35797305      0.77644786
H      -1.33740639      0.80127201     -1.86551666
H       2.84423427      0.60267672     -0.69060664
H       4.05463558     -0.10126180      1.07553473
