17
b3lypvtz=-191963.31067477
N       2.79859147     -0.73941710     -0.06827307
C       2.24370894      0.56260885     -0.02371501
C       0.92752451      0.77622911      0.05863173
N      -0.02044157     -0.26176935      0.06595807
C      -1.34837500      0.05221303      0.51174608
C      -2.31630933      0.61093644     -0.49505238
C      -2.47172245     -0.80270498      0.00327330
H       3.79107938     -0.73702796     -0.24649734
H       2.34382151     -1.33182882     -0.75349283
H       2.93081810      1.39616219     -0.02520683
H       0.53272250      1.78147700      0.07768518
H       0.34531255     -1.10010517      0.50232485
H      -1.44790310      0.42732136      1.52920350
H      -3.02553527      1.35609577     -0.16278742
H      -1.94710482      0.74436546     -1.50172938
H      -2.20585874     -1.59890059     -0.67758717
H      -3.28694269     -1.02877625      0.67606471
