19
b3lypvtz=-195133.13351083
C      -2.45813747      0.47332233      0.39007847
C      -1.69343870     -0.78522160     -0.02319806
C      -0.40499588     -0.56371601     -0.83210359
C       0.74701213      0.11800976     -0.10791882
C       0.79487932      1.62762606     -0.12520023
C       1.45805821     -0.61833685      0.94533646
O       2.03730737     -0.48608032     -0.35517392
H      -3.41387610      0.20972296      0.84610064
H      -2.66841267      1.11159551     -0.47124160
H      -1.90678600      1.06852765      1.11858699
H      -1.45933224     -1.37503263      0.86759023
H      -2.35416323     -1.41033888     -0.62981906
H      -0.63761881      0.00376524     -1.73911300
H      -0.03323398     -1.53542305     -1.16254587
H       1.68078939      1.98710360      0.39694248
H       0.83917177      1.98581222     -1.15614483
H      -0.08731141      2.06567713      0.34136269
H       1.14263086     -1.62372367      1.20946939
H       1.96332945     -0.07376945      1.73786563
