12
b3lypvtz=-202891.79611275
C      -1.72950812     -0.55616574     -0.21702659
O      -0.93709836      0.57409663     -0.56458057
C       0.28727538      0.64055842      0.13985753
C       1.24833418     -0.40285326     -0.24915126
C       2.01367257     -1.27060814     -0.55827080
C       0.85442042      1.98245875     -0.08649055
N       1.30459857      3.02978757     -0.22777118
H      -2.64612038     -0.47151732     -0.79471047
H      -1.22596928     -1.49270009     -0.46962937
H      -1.97304702     -0.55243690      0.85119309
H       0.10402515      0.55101076      1.22149899
H       2.69941688     -2.03153069     -0.83921882
