15
b3lypvtz=-191230.15187353
N       1.65173361     -1.29873745     -0.05625332
C       0.53434520     -0.71226749      0.04229758
C      -0.87415638     -1.26026321      0.15207919
C      -1.77360360     -0.08618598     -0.28689416
C      -1.01435276      1.17361189      0.17439278
C       0.44345799      0.79793833      0.04375097
N       1.40685248      1.60822800     -0.07104268
H       1.55356009     -2.31409074     -0.05757404
H      -1.06718416     -1.51233012      1.20034296
H      -1.01415119     -2.16986454     -0.43202927
H      -1.86504477     -0.08305656     -1.37510288
H      -2.77908020     -0.15069304      0.12563807
H      -1.25381939      2.07401057     -0.38759322
H      -1.22977964      1.38041037      1.22805710
H       2.28006071      1.07736297     -0.14803310
