18
b3lypvtz=-205192.88917302
C       2.64061812      0.72082950     -0.02644430
C       2.05181496     -0.68274059     -0.20658904
N       0.71506240     -0.91713453      0.33897817
C      -0.36753001     -0.22574069     -0.30206858
C      -0.83554678      1.18987235      0.03694252
C      -1.65948229     -0.00329646      0.41272696
O      -2.88044131     -0.16246216     -0.26135180
H       3.64798157      0.76808954     -0.44626781
H       2.71022475      0.98282551      1.03214440
H       2.03428889      1.47836474     -0.52249450
H       2.01447630     -0.92783363     -1.27153480
H       2.72003684     -1.41653390      0.25090686
H       0.70373010     -0.76609748      1.34002120
H      -0.47094169     -0.49288925     -1.34776222
H      -1.21018516      1.80282792     -0.77189368
H      -0.33717292      1.72723085      0.83245624
H      -1.68790817     -0.26743480      1.46837913
H      -3.04417158     -1.10499794     -0.37177177
