10
b3lypvtz=-246305.9700315
C      -0.90325105     -0.29578861      0.47494657
N      -0.12910511      0.19251915     -0.41458023
O       1.18773333      0.07136106     -0.08244413
N       2.00777983      0.66974329     -1.18382032
N       3.17667062      0.58271523     -0.92757856
C      -2.35272548     -0.21412914      0.20941230
O      -3.18126304     -0.64197397      0.97603231
H      -0.55501656     -0.75748251      1.39580241
H       3.36735468      0.12302671     -0.02016790
H      -2.61817723      0.27000879     -0.74722007
