16
b3lypvtz=-227757.14567452
C      -0.90694883      0.41750406     -0.33431085
C      -2.11728246     -0.40796806      0.09303655
O      -3.34190921      0.11186875     -0.41041190
C       0.39519920     -0.18395828      0.15823548
O       1.46552500      0.67526769     -0.28137575
C       2.70902560      0.31239737      0.06473150
N       2.97451189     -0.71916850      0.74319512
H      -1.00086105      1.43524804      0.05729775
H      -0.89221396      0.49214084     -1.42330012
H      -2.15038126     -0.49586482      1.18640183
H      -2.04549985     -1.41989399     -0.30916133
H      -3.47177097      0.99379714     -0.04817336
H       0.55915615     -1.18623269     -0.24252229
H       0.42800813     -0.26048276      1.24689992
H       3.42028292      1.03968994     -0.32934423
H       3.97515871     -0.80434473      0.89083445
