13
b3lypvtz=-213771.26735048
C       0.07848002      1.91588310     -0.19431971
C      -0.20005509      0.61732309     -0.02439528
C      -1.64149006      0.27658771      0.11416770
O      -2.12085200     -0.83096544      0.13485180
C       0.84899079     -0.44885491     -0.02349377
N       0.64814332     -1.68547708     -0.25043322
N       2.14739335      0.01140581      0.17239028
H      -0.71603928      2.65287615     -0.19586998
H       1.08297901      2.27492071     -0.36605047
H      -2.29251590      1.17146520      0.18748977
H      -0.33567951     -1.86859659     -0.42111965
H       2.80414064     -0.74937828      0.27077472
H       2.26672770      0.72952953      0.86949881
