10
b3lypvtz=-246381.86877074
C      -1.07991751     -0.04788504      0.19279329
N      -2.31355583     -0.27448400      0.28401713
N      -0.39958907      1.12212665      0.35791699
N       0.97624935      0.97822343      0.17429012
C       1.08832884     -0.26510813     -0.09457862
O      -0.05844671     -0.97683414     -0.11286911
O       2.19031469     -0.95523819     -0.36012557
H      -2.54569426     -1.24461041      0.11002352
H      -0.79876621      2.01198058      0.58607542
H       2.94107671     -0.34817073     -0.31897803
