15
b3lypvtz=-191231.43265174
C      -1.70240324      0.32416831      0.38818115
C      -0.72397491     -0.77888607     -0.04134284
C       0.49706088     -0.26484510     -0.76796023
N       0.83715440     -0.54636265     -1.95530178
C       1.40641752      0.71558243     -0.02497834
C       1.76864232      0.28170305      1.32042268
N       2.04146185     -0.07046062      2.38109536
H      -2.58080459     -0.11687137      0.85902324
H      -1.25388814      1.00456079      1.11260402
H      -2.03893369      0.90980467     -0.46869092
H      -1.23085790     -1.49337599     -0.69222680
H      -0.39609001     -1.32931836      0.84516345
H       0.16283828     -1.17887974     -2.38857964
H       2.30599639      0.85752065     -0.62196597
H       0.90738086      1.68566003      0.05455663
