13
b3lypvtz=-190489.29234505
C      -1.89485576     -0.08384124      0.29284091
C      -0.40994872     -0.01997857      0.07452247
C       0.30796557      1.17121599      0.15026101
N       1.62021146      1.24650566     -0.06543979
C       2.23183415      0.10147220     -0.36147734
N       1.66416571     -1.09947397     -0.45257165
C       0.35134951     -1.14534799     -0.23211250
H      -2.22738043      0.69040736      0.98464915
H      -2.19477163     -1.05095463      0.69704043
H      -2.43700209      0.06090639     -0.64497403
H      -0.19505606      2.10150122      0.39882393
H       3.29946067      0.15140659     -0.54284511
H      -0.11597236     -2.12381902     -0.29871748
