17
b3lypvtz=-191972.21217277
C       1.84867827     -0.11188355     -0.99219208
N       1.64392373     -0.03152714      0.44962693
C       0.25815101      0.06685807      0.91982742
C      -0.55893170     -1.15612139      0.56127243
C      -1.49531641     -0.82389311     -0.32993118
N      -1.47099855      0.52832215     -0.68902315
C      -0.62548396      1.20549765      0.30916035
H       2.91918075     -0.16259872     -1.19351605
H       1.39541926     -1.02561376     -1.37577688
H       1.43275846      0.72909469     -1.56506617
H       2.18461855      0.73156021      0.83688071
H       0.33332798      0.20296417      2.00078780
H      -0.32464915     -2.15284608      0.89716864
H      -2.20275211     -1.47977318     -0.81758078
H      -2.36769223      0.95579235     -0.86532520
H      -0.02440854      1.99388356     -0.14662661
H      -1.23946435      1.65277206      1.09748282
