14
b3lypvtz=-231988.24692661
C      -2.82759165      0.17344261      0.00018971
C      -1.51013067     -0.02698180      0.00021092
F      -1.05108022     -1.29976423      0.00053412
C      -0.48905103      0.99687302     -0.00008797
C       0.84499076      0.85640428     -0.00000866
O       1.50015743     -0.31994517      0.00046208
C       2.92139694     -0.23362507     -0.00007280
H      -3.22439466      1.17651066     -0.00006406
H      -3.51272573     -0.66026472      0.00042497
H      -0.85678427      2.01316849     -0.00040069
H       1.47261918      1.74300711     -0.00028781
H       3.29256677     -1.25479139      0.00078302
H       3.28379211      0.28175857     -0.89356782
H       3.28437003      0.28346065      0.89220498
