16
b3lypvtz=-204458.63157131
C      -2.39667644     -0.24489337     -0.52406447
C      -1.13139443      0.20007732      0.15379221
N      -0.72367379      1.40446860      0.22500750
C      -0.25055958     -0.87350755      0.76810942
C       0.94280376     -1.19672340     -0.10721098
C       1.92143600     -0.32957185     -0.39115386
O       1.99792109      0.96376652     -0.02318196
H      -3.06783745     -0.71265102      0.20080391
H      -2.16944895     -1.00251082     -1.27774563
H      -2.91615649      0.58515229     -1.00195199
H      -1.34565095      2.05877068     -0.24660173
H       0.08646421     -0.50396930      1.74129209
H      -0.83051006     -1.77858202      0.94612304
H       1.03618322     -2.20052617     -0.49677778
H       2.78708123     -0.64173676     -0.96422249
H       1.10831464      1.29052784      0.25139773
