11
b3lypvtz=-236278.12853479
C       2.45422872      0.17374993      0.32725342
N       1.87888149     -0.18359778     -0.74270107
C       0.51320817      0.01482025     -0.89602904
N      -0.29859095     -0.34645299      0.01756091
O      -1.62931807     -0.11744492     -0.43821220
C      -2.58224468     -0.48229698      0.46346978
O      -2.42150991     -0.94148042      1.54857476
H       1.93871632      0.70331129      1.13072216
H       3.50964355     -0.04999866      0.45357650
H       0.18635846      0.41001285     -1.85414904
H      -3.54937311     -0.26307232     -0.01006619
