10
b3lypvtz=-279682.58148466
O      -0.19790917      1.23957057     -0.00046039
C      -0.39232084     -0.10846887     -0.00010695
C      -1.60805413     -0.66808879      0.00014286
F      -2.70001531      0.13514797     -0.00007534
N       0.69495679     -0.95255188      0.00004237
C       1.90607455     -0.64096221     -0.00012233
F       2.41552820      0.60356320     -0.00045411
H      -1.06282541      1.67017855     -0.00054117
H      -1.81173367     -1.72413535      0.00027974
H       2.69560900     -1.38236819      0.00003932
