14
b3lypvtz=-203687.36103865
C      -1.09483496     -0.41065437     -0.70573020
C      -1.02222595      0.96780791      0.02274085
C       0.15569975      0.44182639      0.88270526
N       1.48479869      0.88840981      0.43991100
C       1.97755033     -0.06924034     -0.22324816
O       1.27029745     -1.22015658     -0.39308501
C      -0.00885664     -0.96509370      0.23996407
H      -0.77590122     -0.39632963     -1.74671554
H      -2.05530463     -0.92032641     -0.64457119
H      -0.77134181      1.82524028     -0.59871527
H      -1.91243632      1.20269945      0.60487342
H       0.06062409      0.55699800      1.96158527
H       2.95464947     -0.07209690     -0.68810738
H      -0.26281825     -1.82908391      0.84839289
