14
b3lypvtz=-201305.79082962
N       2.22741040     -1.18996516      0.10173494
C       1.12506639     -0.53934820      0.09368737
N      -0.07162342     -1.20322173      0.23957070
C      -1.35560960     -0.66686193     -0.20513040
C      -1.38334503      0.81959742     -0.00593469
C      -0.23622252      1.48884473      0.07607711
N       0.99412731      0.84509639     -0.00514732
H       3.03164931     -0.57118448      0.06412275
H       0.04857801     -2.20214889      0.19797702
H      -2.14372900     -1.14586689      0.38064873
H      -1.55590576     -0.91428798     -1.26002915
H      -2.32957229      1.33441150      0.04998554
H      -0.18844113      2.56159464      0.19946864
H       1.83731732      1.38324057      0.07286877
