14
b3lypvtz=-203698.41043254
C       3.57846112     -0.14832160     -0.00000010
C       2.36494535      0.39964221     -0.00000022
N       1.16832520     -0.30435468      0.00000033
C      -0.06857391      0.25918021     -0.00000316
C      -1.24710454     -0.40051201     -0.00000319
C      -2.49300358      0.33503891     -0.00000354
O      -3.60252894     -0.16004169      0.00000584
H       4.45513630      0.47943436     -0.00000103
H       3.72905378     -1.22009029      0.00000110
H       2.23355536      1.47443967     -0.00000061
H       1.22372538     -1.31188833      0.00000056
H      -0.06323174      1.34428037     -0.00000538
H      -1.29889725     -1.48315675     -0.00000226
H      -2.37255153      1.44154160      0.00000866
