10
b3lypvtz=-202120.95195395
C       2.37702469     -0.04670754      0.13320349
C       1.19288040      0.02791126     -0.03071273
C      -0.23176888      0.13213567     -0.22329830
C      -1.15364093     -0.88330172      0.34467211
O      -0.85745696     -0.86941078     -1.04346285
C      -0.73782880      1.48052336     -0.41990554
N      -1.14228363      2.54786361     -0.55983531
H       3.42776377     -0.11430190      0.27283782
H      -0.71658239     -1.69747538      0.91135817
H      -2.15810728     -0.57723658      0.61514312
