13
b3lypvtz=-242031.48889888
C      -3.51958684     -0.30660243      0.00003147
C      -2.19324126      0.37328161      0.00004672
N      -1.12815577     -0.31636060      0.00003188
O       0.01001154      0.51777297      0.00003856
C       1.15805642     -0.22761184     -0.00001012
C       2.34073462      0.36709631     -0.00000742
F       3.47118158     -0.37491049     -0.00004750
H      -4.09931154     -0.01277771      0.87845444
H      -3.39802372     -1.38779537      0.00002936
H      -4.09928874     -0.01277175     -0.87840472
H      -2.14443821      1.46135528      0.00004531
H       1.03246939     -1.30039850     -0.00004698
H       2.51582853      1.43243452      0.00004102
