12
b3lypvtz=-200507.97608145
C       1.67492071     -1.61293298      0.02054476
C       0.26120545     -1.16202357     -0.05612142
C      -0.17074512      0.10795200     -0.05150604
C       0.71762113      1.22768400      0.00724837
N       1.44475223      2.11929958      0.07301584
N      -1.54855149      0.48016347     -0.22257517
N      -2.35893032     -0.34527604      0.22080687
H       1.80853861     -2.26159763      0.89123708
H       2.37678163     -0.78456125      0.09272280
H       1.92966950     -2.21788066     -0.85400506
H      -0.50844935     -1.92131692     -0.13560933
H      -3.29554500      0.01278801     -0.00920571
