12
b3lypvtz=-226167.2673276105
C      -1.04612624     -1.41887859     -0.36666248
C      -0.81294087     -0.11323578     -0.21658301
C       0.26707154      0.48088646      0.61037429
C       1.68205054      0.37716488      0.22331318
O       1.14010719     -0.44059739      1.26311097
N      -1.72334726      0.74698456     -0.92208692
O      -1.50054298      1.93280595     -0.78741602
H      -0.43293572     -2.15874046      0.12698621
H      -1.86601696     -1.73856832     -0.99483193
H      -0.02838503      1.33843899      1.20443997
H       2.37889170      1.14197665      0.54872507
H       1.94217406     -0.14823692     -0.68936934
