11
b3lypvtz=-264618.58962549
N      -2.12843979      0.57292618      0.27193639
C      -1.01175440      0.04138794     -0.37358009
C       0.08842526     -0.38076195      0.23093404
F       0.20622465     -0.41560062      1.57240469
O       1.19618256     -0.87627683     -0.41265329
C       2.31435642     -0.08126610     -0.44767480
O       2.40430628      1.01644563     -0.00018257
H      -2.13969078      0.41614106      1.26908295
H      -3.00710890      0.30853520     -0.14709441
H      -1.02796896      0.03899232     -1.45325567
H       3.10556765     -0.64042284     -0.95991723
