12
b3lypvtz=-200481.08066772
C       3.07486264     -0.21301094      0.00047557
C       1.64916524      0.06052981      0.00287000
C       0.46748531      0.28805490      0.00490489
C      -0.93656733      0.56376935      0.00743823
N      -1.47848041      1.71450209      0.02390404
N      -1.88228875     -0.54016780     -0.01011844
N      -1.34110516     -1.65372598     -0.02596549
H       3.55314323      0.22723214     -0.87689035
H       3.26540332     -1.28750663     -0.01134453
H       3.55245655      0.20775458      0.88771284
H      -0.76285902      2.44032365      0.03552504
H      -2.10407862     -2.34569517     -0.03712779
