16
b3lypvtz=-181146.99462604
C       2.43072684      0.38172372     -0.53262490
C       1.73019762     -0.45163549      0.22720818
C       0.28615815     -0.29536963      0.61580707
C      -0.33725097      1.06630014      0.38258621
N      -1.50430416      1.08858789     -0.10864377
C      -1.94754613     -0.29662865     -0.33669303
C      -0.70346888     -1.19809698     -0.17085483
H       3.46484950      0.18037327     -0.77861389
H       2.00377033      1.28900692     -0.94190247
H       2.21531337     -1.34805160      0.60255738
H       0.20564980     -0.51522682      1.68930205
H       0.16504795      1.98911168      0.66098266
H      -2.72682205     -0.52350493      0.39684131
H      -2.40906733     -0.37682850     -1.32139682
H      -0.27671412     -1.43850212     -1.14489888
H      -0.92051192     -2.13504292      0.33965873
