16
b3lypvtz=-204428.60479118
O       3.41820407      0.49988177     -0.27645614
C       2.06721092      0.59327007     -0.03401191
C       1.22730099     -0.43469080      0.11423109
N      -0.12083336     -0.34044991      0.45811288
C      -0.89020778      0.90865211      0.36859841
C      -2.14856686      0.06853749      0.05262785
C      -1.17680265     -1.09750574     -0.24489030
H       3.66648713     -0.42823608     -0.34455449
H       1.75961703      1.62458536      0.05963864
H       1.59103508     -1.45469701      0.02280226
H      -0.58388771      1.53781742     -0.47884413
H      -0.88758910      1.51361937      1.27697943
H      -2.76908882      0.40798272     -0.77221119
H      -2.76974225     -0.10959755      0.92753833
H      -1.40262287     -2.07335808      0.18835461
H      -0.98041383     -1.21591114     -1.31781534
