15
b3lypvtz=-214513.58741981
C       2.28171441     -0.83024173      1.33935737
N       0.83397150     -0.69446423      1.28314673
C       0.32904413      0.03190626      0.38559647
C      -1.15235207      0.19203299      0.27651890
C      -1.86705005     -0.13290993     -0.98787080
N      -1.57717418      1.26211645     -0.64219085
O       1.03370761      0.71096709     -0.55770994
H       2.56577029     -1.17699616      2.33232950
H       2.80747606      0.10387216      1.12184354
H       2.62622291     -1.57623671      0.61625072
H      -1.68725776      0.04223608      1.20377233
H      -1.31195950     -0.51666069     -1.83387814
H      -2.88686026     -0.48714905     -0.90687172
H      -2.39374087      1.75455565     -0.30173651
H       0.39848777      1.31697181     -0.98473460
