17
b3lypvtz=-194346.25268227
C       2.72486913      0.06654349     -0.03231889
O       1.61068935      0.92738457     -0.19464829
C       0.42205274      0.38664650      0.29625608
C      -0.35816821     -0.49720626     -0.63888237
C      -0.80336814      0.94454475     -0.33915393
C      -2.05471199      0.42371890      0.36818389
C      -1.60030616     -1.04306316      0.06613974
H       3.59334098      0.59105004     -0.42635672
H       2.59247772     -0.87345812     -0.57859334
H       2.89815673     -0.16525013      1.02516908
H       0.43955402      0.16680676      1.36644703
H       0.10164960     -0.88872403     -1.53527767
H      -0.73132777      1.82053129     -0.96768428
H      -2.15979579      0.70006441      1.41960998
H      -2.97469260      0.68237680     -0.15267735
H      -1.41438760     -1.68601866      0.92971836
H      -2.28603199     -1.55594718     -0.60593134
