11
b3lypvtz=-236298.50162133
C       2.42390295      0.34964404      0.00000151
O       1.38197331     -0.64850835      0.00004651
C       0.15320956     -0.18878880      0.00026228
N      -0.26768552      1.04250964     -0.00006667
C      -1.62491354      0.85197569      0.00000039
N      -2.03119714     -0.38143860      0.00010372
O      -0.80785845     -1.11076539     -0.00026170
H       2.34598882      0.97215771      0.88945934
H       3.35385129     -0.20929949     -0.00001179
H       2.34595028      0.97210269     -0.88949015
H      -2.33492756      1.66412686     -0.00003645
