14
b3lypvtz=-203694.42237766
C       1.35141297      1.62676294      0.05038262
C       0.32350172      0.77165532     -0.02413336
N      -1.03809038      1.05673249     -0.14258590
C      -1.84590885     -0.15015879      0.04440005
C      -0.81517465     -1.24091523      0.03101023
C       0.40693224     -0.69567293     -0.00693160
O       1.62905291     -1.27731231     -0.02332972
H       1.20562014      2.69752469      0.03582961
H       2.35811806      1.24760643      0.12142662
H      -1.37141842      1.91347145      0.26529028
H      -2.40431647     -0.12671399      0.99085991
H      -2.58353308     -0.26082176     -0.75890183
H      -1.05818558     -2.29275042      0.04193014
H       1.53007240     -2.23402589      0.01834796
