12
b3lypvtz=-231218.43460046
O      -3.36743500     -0.84317217      0.00027855
C      -2.80532625      0.22692732      0.00062313
C      -1.37346594      0.39098978      0.00037061
C      -0.18342804      0.58237570      0.00018723
C       1.25930042      0.75320865     -0.00004980
C       1.99966169     -0.58350808      0.00007014
F       3.36713343     -0.33358085     -0.00018757
H      -3.37369541      1.17459207      0.00118067
H       1.56212112      1.33163246      0.87708032
H       1.56184499      1.33130961     -0.87748974
H       1.75910818     -1.16633041     -0.88960287
H       1.75938981     -1.16601311      0.89002734
