16
b3lypvtz=-209435.14415501
C      -1.57905236     -0.55342821     -0.40815426
C      -0.68075890     -0.75400058      0.85466585
C       0.40924337      0.09691838      0.19164833
C      -0.47765411      0.29838522     -1.04092512
C      -0.13631456      1.45497826     -0.15080020
C       1.86891344     -0.16285277      0.28376844
F       2.16447587     -1.48527553     -0.07955269
H      -1.75388592     -1.48773139     -0.93797351
H      -2.53621231     -0.05155402     -0.25478065
H      -0.37710492     -1.79149627      0.97738482
H      -1.06717724     -0.37978290      1.80493949
H      -0.18889879      0.28556559     -2.08265727
H       0.57987506      2.15780746     -0.55741589
H      -0.89446933      1.90812887      0.47957391
H       2.43119958      0.49326986     -0.38478115
H       2.23782109     -0.02893197      1.30505990
