15
b3lypvtz=-191192.23135052
C       0.86074907      1.24620083     -0.02259188
C      -0.66207561      1.08208720      0.03334340
C      -0.97829449     -0.01349661      1.07070201
N      -0.62706854     -1.05186389      0.01532171
C      -1.05621812      0.00267062     -0.99422856
C       0.82657835     -1.06688416     -0.03962170
N       1.56796756     -0.04207436     -0.05947371
H       1.22932644      1.80135625      0.84459399
H       1.16368736      1.81551313     -0.90585319
H      -1.19166397      2.03573310      0.06070840
H      -2.03711250     -0.09473182      1.31313694
H      -0.38160138     -0.06760728      1.98102872
H      -0.53003090     -0.03689903     -1.94773168
H      -2.13034057     -0.07537253     -1.15728911
H       1.27629732     -2.05673146     -0.06434533
