16
b3lypvtz=-209437.27870378
C       3.16889449     -0.88169749     -0.11073470
C       2.36834591      0.00186698      0.02615481
C       1.38155272      1.06672022      0.17758373
C      -0.01469515      0.70224618     -0.35985934
C      -0.67212870     -0.45746733      0.38708061
C      -2.05400108     -0.79468396     -0.12894388
F      -2.92027048      0.29076538      0.05216873
H       3.88468289     -1.65616859     -0.22869993
H       1.74455882      1.95910244     -0.33915962
H       1.30640877      1.33590778      1.23576013
H      -0.65062623      1.58578512     -0.28589466
H       0.06617826      0.45606967     -1.42189105
H      -0.05359680     -1.35562726      0.30224591
H      -0.74358879     -0.22390442      1.45352474
H      -2.48340024     -1.64307878      0.40717043
H      -2.04015039     -1.01968294     -1.19849591
