11
b3lypvtz=-236301.93963906
C      -2.42987319      0.30926608     -0.00000074
O      -1.37394297     -0.67322475     -0.00002400
C      -0.15482528     -0.17943136     -0.00007386
N       0.24890133      1.04687724      0.00004915
N       1.65336497      0.96999523     -0.00005762
C       1.94542477     -0.27565179     -0.00001726
O       0.84423131     -1.09008093      0.00004869
H      -3.35236028     -0.26195584      0.00000344
H      -2.36036030      0.93412262      0.88895361
H      -2.36037940      0.93414593     -0.88894063
H       2.91363105     -0.74376343      0.00002721
