17
b3lypvtz=-194384.8142062
C       0.46905677      1.90264045      0.00987111
C       0.44057245      0.57203696      0.00875085
C       1.50573730     -0.25457685     -0.67086438
C       2.46665501     -0.93874977      0.31358291
C      -0.69048594     -0.17482970      0.68743823
C      -1.79258115     -0.53138040     -0.29035474
O      -2.96420447     -0.35253817     -0.08320746
H       1.25751879      2.45053555     -0.49079313
H      -0.28964398      2.48877823      0.51298251
H       2.07752629      0.38389689     -1.34633925
H       1.03397793     -1.02154921     -1.29411806
H       1.94140898     -1.60415728      1.00068833
H       2.99959369     -0.19761564      0.91039340
H       3.20399053     -1.53743782     -0.22305678
H      -1.13605554      0.40346132      1.49537607
H      -0.32257711     -1.11588545      1.11204694
H      -1.45315857     -0.97962111     -1.24723855
