13
b3lypvtz=-239480.55867074
C      -1.69107509     -1.12415702     -0.84111209
C      -0.87318859     -0.15319447     -0.43660574
O      -0.75709270      1.00806427     -1.13248714
C      -0.08674588     -0.26162787      0.83603753
O       1.36145429     -0.39662954      0.63159333
C       2.05306431      0.70174158      0.35660000
O       1.59846285      1.80000342      0.14228782
H      -1.78101807     -2.03723931     -0.27453702
H      -2.28199345     -1.01294835     -1.73850695
H      -0.06007368      1.55636269     -0.73533844
H      -0.35670088     -1.16420211      1.37246877
H      -0.24971456      0.61078151      1.47099352
H       3.12472145      0.47304521      0.34870641
