15
b3lypvtz=-219528.96812229
C       1.63882811      1.46911266     -0.29148386
C       1.20178124      0.23575686      0.00285331
N       2.02226033     -0.80071648      0.44698106
C      -0.23082914     -0.11317197     -0.05964444
F      -0.43025250     -1.41268484     -0.44773450
C      -1.28146631      0.64353080      0.23049702
C      -2.71256827      0.22855321      0.11168905
H       2.68249323      1.73384181     -0.18780933
H       0.95908289      2.23040399     -0.63665284
H       2.99302061     -0.70875095      0.19376296
H       1.66658392     -1.72442237      0.25975037
H      -1.06672328      1.64180201      0.58655593
H      -3.25036569      0.88780399     -0.57522526
H      -3.21950353      0.30080046      1.07734830
H      -2.80902661     -0.79264319     -0.25017576
