19
b3lypvtz=-216037.88657138
C       3.14530424     -0.27645579     -0.00291736
N       1.73069808     -0.50982409     -0.26674145
C       0.86718145      0.56380658      0.20945678
C      -0.57738085      0.40371403     -0.26992397
O      -1.35228937      1.54823826      0.10685867
C      -1.29072319     -0.80212870      0.34158692
N      -2.67121451     -1.00461947     -0.08998901
H       3.72523250     -1.13991347     -0.32984951
H       3.48567131      0.58724479     -0.57798489
H       3.38011950     -0.08477394      1.05562506
H       1.45444892     -1.38602906      0.15776191
H       0.86690501      0.67695490      1.30619354
H       1.25824502      1.50255855     -0.19647573
H      -0.56933996      0.29187623     -1.36154581
H      -1.04911442      2.30939908     -0.39628862
H      -0.72720111     -1.70965067      0.11534185
H      -1.28663327     -0.68083707      1.42915588
H      -2.70006066     -1.22602862     -1.07911577
H      -3.18159467     -0.13650253      0.02591153
