13
b3lypvtz=-237042.34941895
C       1.63104947     -0.79458034     -0.05254224
C       0.28637651     -0.14393733     -0.01028229
N       0.05505476      1.09015498      0.20789278
O       1.26688436      1.78783577      0.41116042
O      -0.73326720     -1.02181249     -0.23592961
C      -2.08522712     -0.69746370     -0.25483274
N      -2.66752735      0.39518085     -0.08347973
H       1.52542129     -1.85597662     -0.25709410
H       2.24749449     -0.32946782     -0.82212816
H       2.14603405     -0.65061770      0.89753927
H       0.96054941      2.68729009      0.56193371
H      -2.62033965     -1.61924978     -0.46009419
H      -2.01250300      1.15264409      0.09785689
