10
b3lypvtz=-223046.93670969
N       1.01589408      1.82244436      0.00002292
C       0.61589231      0.62003306     -0.00012870
C       1.32767007     -0.66210765     -0.00005947
N       0.53882033     -1.66821267     -0.00021109
O      -0.79957163     -1.20150017      0.00000069
C      -0.81474016      0.18463965     -0.00000538
N      -1.85083687      0.89203275      0.00005274
H       2.03563765      1.87309132     -0.00007556
H       2.39639599     -0.82217535      0.00017640
H      -2.69653678      0.32169669      0.00006946
