14
b3lypvtz=-201268.84281452
C       2.64937330     -0.66487976      0.62621595
C       1.59756740     -0.38655568      0.12185297
C       0.35750369      0.06518534     -0.51397303
N       0.24014779      1.53358765     -0.58818503
C      -0.89373110     -0.57227919      0.12847708
N      -1.96244062      0.27930823      0.19211679
N      -0.82649814     -1.78778191      0.49919160
H       3.56653273     -0.94220477      1.08212889
H       0.35391470     -0.29754423     -1.54659364
H       0.91348267      1.89269710     -1.25362109
H       0.48001923      1.93938302      0.31020245
H      -1.88072827      1.16068873     -0.28908458
H      -2.87758364     -0.09574493      0.36828554
H      -1.71735973     -2.12385959      0.86298610
