14
b3lypvtz=-201304.8920729
C      -1.04248734      0.89638093     -0.17019832
C      -0.61515784     -0.54756905     -0.28362296
N       0.50855192     -1.04587591      0.07528230
C       1.50233538     -0.19149466      0.69850966
C       2.14451612      0.74520397     -0.23761295
N       2.62359877      1.47935837     -0.98331567
N      -1.55969394     -1.39408062     -0.80468784
H      -2.11165575      1.01340125     -0.33501160
H      -0.50526997      1.50521611     -0.89834124
H      -0.80996168      1.29253701      0.81760793
H       1.10784381      0.39932006      1.53580836
H       2.28773749     -0.82678202      1.11181065
H      -1.23402203     -2.31453754     -1.05287738
H      -2.29633494     -1.01107789     -1.36938983
