13
b3lypvtz=-190432.26257097
C      -0.17687019     -1.08576757      0.74836170
C      -0.46040704     -0.72782154     -0.67277247
C       0.59994519      0.05213786      0.11839107
C      -0.30754504      1.28078488     -0.03129299
N      -1.27607810      0.47324459     -0.82924987
C       2.01619685      0.04667588     -0.00975557
N       3.16511000      0.05704390     -0.10787430
H       0.39603198     -1.99050997      0.90097970
H      -0.89662262     -0.85706333      1.52654251
H      -0.31254467     -1.41630166     -1.49314244
H       0.13689990      2.07153336     -0.63366198
H      -0.68214161      1.70019044      0.90509042
H      -2.20197463      0.39585316     -0.42161578
