17
b3lypvtz=-194357.11976583
C       2.38879495     -0.53926192      0.37502036
C       1.50546834      0.54022885     -0.25579236
C       0.04310214      0.22622930     -0.21509963
C      -0.69845606     -1.02981266     -0.71027494
C      -1.80554164     -0.74514259      0.36125842
C      -1.01288474      0.49358704      0.77929822
O      -0.87787473      1.31881024     -0.38867558
H       3.43957729     -0.25137093      0.32826525
H       2.28692804     -1.49493872     -0.14133269
H       2.13181951     -0.69678784      1.42403859
H       1.65481160      1.49646901      0.25021313
H       1.79929911      0.69389017     -1.29957993
H      -1.00277949     -0.99211252     -1.75575881
H      -0.16441416     -1.95909789     -0.51730617
H      -1.84540002     -1.51281833      1.13338263
H      -2.81030022     -0.54507596     -0.00921226
H      -0.97830692      0.99396474      1.73808278
