14
b3lypvtz=-226978.57553122
C       1.71741428     -0.74216019      0.39653330
C       0.60868002      0.21996951      0.22289973
N       1.46791420     -0.12703085     -0.91657978
C      -0.83112340     -0.25103438      0.11995424
C      -1.60145203      0.63858020     -0.83218231
O      -2.61118999      1.20907968     -0.49601374
O      -1.44503769     -0.28085912      1.38185838
H       2.58159066     -0.42200284      0.96503852
H       1.49978666     -1.80143376      0.45357581
H       0.72277780      1.19653416      0.68196190
H       2.13699516      0.61146056     -1.10134612
H      -0.81714856     -1.25334544     -0.33485280
H      -1.18490355      0.73809653     -1.84889451
H      -2.24430355      0.26414596      1.30804736
