12
b3lypvtz=-223843.49192712
C      -2.42111114      0.34246593     -0.00000954
O      -1.42696221     -0.68492116      0.00011772
C      -0.15968334     -0.27152378      0.00009437
N       0.21004069      0.99911826     -0.00001885
N       1.56842872      0.88164903      0.00022832
H       2.14424947      1.70504200      0.00013611
C       1.92095392     -0.41354441     -0.00018396
N       0.85101647     -1.18013415      0.00006060
H      -2.32974248      0.97017340      0.88748506
H      -2.32981881      0.96986884     -0.88772962
H      -3.37707556     -0.17331807      0.00012136
H       2.94453928     -0.75098389     -0.00014256
