17
b3lypvtz=-217671.69612864
C      -2.62632016      0.16840822     -0.44525700
O      -1.26712136      0.49324819     -0.23892780
C      -0.59746073     -0.40243893      0.63397225
C       0.82066786      0.12479211      0.83930013
C       1.63976761      0.08195237     -0.42351113
C       2.75688963     -0.61826783     -0.56389270
O       0.76874529      1.44617546      1.37900623
H      -3.04378850      0.92145865     -1.11117775
H      -2.73500629     -0.81847305     -0.91049766
H      -3.18678453      0.17328036      0.49733344
H      -0.57533320     -1.41410858      0.20945702
H      -1.11428767     -0.43926279      1.60178391
H       1.30369343     -0.49297569      1.59944112
H       1.26199965      0.67948009     -1.24682986
H       3.15650820     -1.21832421      0.24587979
H       3.31739326     -0.61787817     -1.48964906
H       0.12043750      1.93293381      0.85543214
