14
b3lypvtz=-227010.94189885
N      -2.75108458     -1.01545120     -0.25707437
C      -2.05342280     -0.13156723     -0.02080558
C      -1.15114198      0.98160460      0.26428168
C       0.18650604      0.87965523     -0.48804026
C       1.02786542     -0.32384743     -0.08330576
O       2.20947898     -0.42452112     -0.84298404
O       1.30158521     -0.18806765      1.29652648
H      -0.96768377      1.00911925      1.33905021
H      -1.66111942      1.90821755     -0.00552846
H       0.76318508      1.78437869     -0.27848236
H       0.01574887      0.83187892     -1.56300079
H       0.49315024     -1.25598325     -0.28425074
H       2.72888065      0.37574228     -0.69704840
H       1.74639506     -0.98798164      1.59638438
