16
b3lypvtz=-181146.30553906
C       1.24757431     -1.70455549      0.00120917
C       0.27159557     -0.81447357     -0.11358664
C      -1.20974414     -1.08372547      0.09578675
C      -1.80248731      0.30125106      0.14421698
C      -0.90751563      1.24384987     -0.13054128
C       0.46523625      0.68154363     -0.41373632
N       1.51695879      1.39389611      0.31642309
H       1.05173227     -2.74098017      0.24666223
H       2.28644710     -1.43094452     -0.13953048
H      -1.40498470     -1.66263271      1.00316352
H      -1.63062789     -1.66540306     -0.73265560
H      -2.84814773      0.47946819      0.35650148
H      -1.09548037      2.30774271     -0.16848401
H       0.69744983      0.81318776     -1.47786746
H       2.43310236      1.09433864      0.00493524
H       1.45696028      1.17807803      1.30581233
