15
b3lypvtz=-214524.96739825
C      -0.55000590      1.35652441      0.84023012
C      -0.00928760      0.31131522      0.21820403
C      -0.81204307     -0.87999187     -0.25824174
N      -2.24884854     -0.69613364     -0.06655121
C       1.45950271      0.28348026     -0.02992586
N       2.20330707      1.29837434      0.12097193
O       1.87046924     -0.96404285     -0.42546016
H      -1.60956371      1.38216917      1.04702821
H       0.06924584      2.18275564      1.15723090
H      -0.52987481     -1.09117975     -1.29834379
H      -0.50404058     -1.76101387      0.31050794
H      -2.61030084     -0.01440179     -0.72397805
H      -2.73641075     -1.56447560     -0.24610208
H       3.18563360      1.10404712     -0.06571026
H       2.82221736     -0.94742678     -0.57985999
