16
b3lypvtz=-204440.18579855
C       1.68734081     -0.24567701      0.03246119
C       0.23915090      0.19824075      0.03537716
C       0.08536393      1.68846056      0.22641832
O       0.99831995      2.46331291      0.36342232
C      -0.77189862     -0.55418194      0.95978136
N      -1.75862549     -0.54301886     -0.13963468
C      -0.69115905     -0.27919534     -1.12623325
H       2.24371205      0.24635524     -0.76621822
H       2.17651051      0.01596830      0.97142938
H       1.76144079     -1.32464697     -0.10782904
H      -0.96649265      2.03983489      0.23302949
H      -1.09878977     -0.04646932      1.87032788
H      -0.38647384     -1.54426979      1.22593652
H      -2.28908822     -1.39419629     -0.27233833
H      -0.27646076     -1.17059102     -1.60911289
H      -0.95295053      0.44987389     -1.89671719
