22
b3lypvtz=-183435.91385818
C      -3.47840386     -0.71725603      0.12859454
C      -2.40819252      0.28813386     -0.29330279
C      -1.02286522     -0.05631150      0.24379688
N      -0.02436034      0.90869254     -0.20454183
C       1.32272266      0.69574213      0.32197255
C       2.09143105     -0.39118868     -0.43054404
C       3.51489682     -0.57235911      0.09494258
H      -3.24391204     -1.71969410     -0.23632808
H      -4.45702465     -0.44272270     -0.26745268
H      -3.56550382     -0.77394412      1.21586847
H      -2.68896623      1.28751130      0.05683400
H      -2.35328821      0.34789191     -1.38275901
H      -1.06453944     -0.13151169      1.34519562
H      -0.73696345     -1.04700278     -0.11913755
H      -0.33635241      1.84046206      0.03944816
H       1.86860538      1.63781513      0.22427553
H       1.31230100      0.44883769      1.39794813
H       1.55494191     -1.34059255     -0.35674243
H       2.10850968     -0.12768450     -1.49062957
H       4.04524209     -1.34949287     -0.45716644
H       3.51709328     -0.85701823      1.14966130
H       4.09203232      0.35079125      0.00229366
