18
b3lypvtz=-181914.51051851
C       2.39606471     -0.08012029     -0.00524095
C       0.90926073     -0.02650944     -0.33131812
C       0.26582331      1.30409452      0.09663259
C      -1.23730029      1.23474654      0.05357998
C      -1.89634003      0.08511951     -0.04876267
C      -1.19182630     -1.24602095     -0.08943982
N       0.23020423     -1.19029688      0.25081895
H       2.92949148      0.75450603     -0.46349314
H       2.55684284     -0.02211538      1.07507805
H       2.83274992     -1.01281020     -0.36144610
H       0.78741181     -0.11868504     -1.41643330
H       0.61769613      2.11397939     -0.55101731
H       0.60044396      1.56977991      1.10833532
H      -1.78418171      2.17021539      0.09946653
H      -2.97947406      0.07770651     -0.11338333
H      -1.67876524     -1.94867708      0.59194693
H      -1.30013932     -1.68532815     -1.08986470
H       0.32967283     -1.15625640      1.26018509
