16
b3lypvtz=-204401.76506264
C      -2.28435103     -0.09276412     -0.15568019
C      -0.84388026      0.19284709     -0.52289485
C       0.13264236      0.70171699      0.56307170
C       1.33262963      0.19532738     -0.31040236
C       0.23447007     -0.88964880     -0.26511563
O       0.09973554     -0.64441256      1.20193837
N       2.60141158     -0.14172857      0.26728436
H      -2.85915782      0.83394168     -0.09811221
H      -2.75820087     -0.72447028     -0.91002627
H      -2.34659329     -0.59778361      0.80653903
H      -0.75450261      0.69815540     -1.48754953
H       0.05265283      1.56567229      1.22138825
H       1.46546234      0.69932328     -1.26848454
H       0.27717438     -1.92670905     -0.59320647
H       3.19112589      0.67505377      0.36448857
H       2.45938125     -0.54452091      1.18676176
