19
b3lypvtz=-192750.64076247
C       3.17850884     -0.71932503      0.37366769
C       2.32916529      0.27218302     -0.41860007
N       0.91712756     -0.04092171     -0.31296573
C       0.13822082      0.86475469      0.11610606
N      -1.21882167      0.71899189      0.20010286
C      -1.86713488     -0.56547605     -0.01816949
C      -3.37986347     -0.40627741     -0.06025463
H       2.97694395     -1.73929058      0.04500973
H       2.95213181     -0.65932598      1.43958243
H       4.24242498     -0.51506719      0.23696003
H       2.61699974      0.21666516     -1.47363194
H       2.54972830      1.29887602     -0.08476675
H       0.48641267      1.85902690      0.42644232
H      -1.69892089      1.37533552      0.79266221
H      -1.49234698     -0.96776380     -0.95912222
H      -1.57761503     -1.28364371      0.75805705
H      -3.76575443     -0.01133770      0.88312075
H      -3.85862046     -1.37058015     -0.23120531
H      -3.68049815      0.27144110     -0.86046299
