18
b3lypvtz=-181893.4895912
C      -2.80927711     -0.49171439      0.24946179
N      -2.00914578      0.16589743     -0.46835917
C      -0.88036957      0.81935573      0.17217485
C       0.43506475      0.31857693     -0.40478909
C       0.92970181     -1.10590685     -0.03762256
C       2.36749622     -0.53639730      0.06986341
C       1.75639450      0.88393383      0.17991138
H      -2.70738726     -0.58584626      1.33862463
H      -3.65457383     -0.99655675     -0.21400000
H      -0.88731804      0.68065473      1.26497296
H      -0.96640010      1.89239797     -0.02775383
H       0.41288899      0.44038547     -1.48904446
H       0.74894636     -1.90530175     -0.75468410
H       0.54744716     -1.41961106      0.93619102
H       2.98725825     -0.88344519      0.89563298
H       2.92418325     -0.66539255     -0.85852360
H       2.24301335      1.69363281     -0.36326179
H       1.63417506      1.18881619      1.22129757
