16
b3lypvtz=-204456.20122712
C       1.84116361     -0.20269279     -0.02378030
C       0.37673667     -0.00750635     -0.39379186
C      -0.44385705     -1.30173776     -0.58935677
N      -1.82335195     -1.00599193     -0.15848838
C      -1.81170221      0.08018771      0.49526314
C      -0.46668301      0.76166118      0.64445673
O      -0.49056267      2.17458321      0.49608370
H       2.38276361     -0.73716890     -0.80652323
H       1.93753767     -0.77905523      0.89930636
H       2.33652654      0.75782269      0.12667889
H       0.32128168      0.57003561     -1.32382792
H      -0.06177041     -2.11730915      0.03305242
H      -0.45031410     -1.66635968     -1.61727582
H      -2.71842836      0.48830195      0.93565456
H      -0.08492833      0.60196227      1.65822440
H      -0.84441168      2.38326718     -0.37567594
