15
b3lypvtz=-191224.10271358
C      -0.11698350      1.06136969      1.27118152
C       0.06959520      0.20090649      0.00000814
C      -0.11711999      1.06126096     -1.27121163
C       1.42846892     -0.35654263     -0.00004056
N       2.48942551     -0.80194367     -0.00007084
C      -0.93809976     -0.96954522      0.00013935
N      -2.19540220     -0.87344326     -0.00005084
H       0.59440953      1.88640650      1.27761556
H      -1.12531684      1.47452582      1.29058078
H       0.03081549      0.46864355      2.17269377
H       0.59426233      1.88630503     -1.27777932
H      -1.12545491      1.47441616     -1.29055311
H       0.03059819      0.46846300     -2.17268920
H      -0.50472736     -1.97013493      0.00036625
H      -2.51379060      0.09839752     -0.00029488
