14
b3lypvtz=-226973.3334865036
C      -0.52610982     -0.81743494      0.52358116
C      -1.85279995     -0.54424839     -0.17761706
O      -1.69254849      0.81444710     -0.73453105
C      -0.51828846      1.35630192     -0.42371648
N       0.15903657      0.47638043      0.31354174
C       1.51461147      0.70079430      0.75632533
O       2.46249994     -0.05200863      0.02627928
H      -0.63761635     -1.02269489      1.58913077
H       0.04610885     -1.62717292      0.07189521
H      -2.06032549     -1.21695977     -1.00632097
H      -2.70716459     -0.52330735      0.49562943
H       1.69177755      1.77346832      0.68383045
H       1.62004942      0.37630418      1.79180653
H       2.50076934      0.30613063     -0.86762975
