20
b3lypvtz=-182669.65968018
C      -1.86019432      1.32336773     -0.06177328
N      -0.69512012      0.96712621     -0.38305981
C      -0.14669584     -0.34724263     -0.01071377
C       0.15814054     -1.06938479     -1.33424319
C      -1.06867706     -1.22575737      0.84628735
C       1.15534012     -0.07504591      0.78743071
C       2.23073013      0.74528710      0.07598433
H      -2.56877515      0.71658217      0.50906331
H      -2.20682228      2.30912931     -0.36869748
H       0.70486181     -1.99558677     -1.14785771
H       0.74990901     -0.43923530     -1.99519206
H      -0.76953767     -1.31861136     -1.85191002
H      -2.00440081     -1.45529203      0.33354905
H      -1.30805165     -0.75164982      1.80011670
H      -0.57456895     -2.17316645      1.06362541
H       1.56934261     -1.04357336      1.08202467
H       0.87094556      0.43232609      1.71368889
H       3.06079815      0.94529138      0.75589815
H       2.63854814      0.21889791     -0.78792900
H       1.83300077      1.69853692     -0.26810325
