18
b3lypvtz=-205204.53303801
C      -3.21877911     -0.70707332      0.00319881
O      -2.27822038      0.34280264      0.00160703
C      -0.93715720     -0.11477548     -0.00606263
C      -0.02116706      1.09590873      0.00101866
C       1.45217041      0.79824850     -0.02182435
C       2.02078349     -0.40865950     -0.00216271
N       3.39162938     -0.67082805      0.08826595
H      -3.12133753     -1.33975102     -0.88888806
H      -4.21034759     -0.25725759      0.00916119
H      -3.11276936     -1.34467644      0.89067106
H      -0.75819803     -0.73207829     -0.89821355
H      -0.75335474     -0.74711778      0.87410494
H      -0.26577229      1.69742228      0.88351293
H      -0.28509532      1.72181839     -0.85810622
H       2.10063720      1.67089121     -0.03578672
H       1.41760061     -1.30896271      0.01482794
H       3.69324828     -1.49421807     -0.40985498
H       3.98319524      0.11887249     -0.12620030
