17
b3lypvtz=-171068.63991562
C      -0.91415284     -0.76359405     -1.05179367
C      -1.14317322     -0.36887980      0.38470140
C      -2.15131579     -0.91817095      1.07779306
C      -0.34066197      0.66706724      1.04303779
C       0.78962650      1.30010160      0.68197790
C       1.72086775      1.07384418     -0.42607500
C       2.30545106     -0.07886272     -0.74678177
H      -0.00864980     -1.35674273     -1.17568172
H      -0.79875165      0.11513803     -1.68777402
H      -1.75700160     -1.34841079     -1.41828974
H      -2.79641384     -1.66870142      0.64063630
H      -2.35529453     -0.63422565      2.10234560
H      -0.78213293      1.01052116      1.97351976
H       1.08086158      2.13036185      1.32156738
H       2.02378457      1.96897250     -0.96482531
H       3.02203260     -0.13809968     -1.55533711
H       2.10482411     -0.99031878     -0.19892085
