13
b3lypvtz=-237066.09050571
N      -2.33610670     -0.54568313     -0.57252852
C      -1.22671949     -0.89166737     -0.08749817
C      -0.23245743      0.01833988      0.62418729
O      -0.70774855      1.35859267      0.53311138
C       1.15852690     -0.13283977     -0.00903795
N       1.97928852     -1.06431067      0.21489877
O       1.45173625      0.81993026     -0.91401459
H      -2.49262602      0.45422842     -0.42407679
H      -0.90720285     -1.93125297     -0.16787450
H      -0.16506368     -0.30327232      1.66780898
H      -0.38755455      1.86382519      1.28643147
H       1.62802787     -1.70365130      0.92272210
H       0.73181571      1.46898511     -0.90312347
