17
b3lypvtz=-194362.73323968
C       2.85582803      0.65434067      0.26116330
C       2.24429155     -0.50236635      0.01152382
O       0.93140062     -0.73050274     -0.21805503
C       0.05479520      0.39955519     -0.21420982
C      -1.33615771     -0.07033536     -0.51302117
C      -2.18930779     -0.64189224      0.58461328
C      -2.50677278      0.71477252      0.01721051
H       3.92298846      0.65199877      0.42362045
H       2.34618177      1.60419870      0.31170499
H       2.79272929     -1.43543596     -0.03036499
H       0.39771132      1.12000011     -0.96478003
H       0.09605632      0.88869748      0.76560145
H      -1.45494816     -0.51079818     -1.49505895
H      -2.84468078     -1.46627978      0.34180859
H      -1.76236138     -0.68970880      1.57728195
H      -3.37605627      0.81897687     -0.61648094
H      -2.30027269      1.58141910      0.63127261
