13
b3lypvtz=-216162.30400428
O      -0.00650970      1.72538602     -1.70473825
C       0.64807265      1.25218905     -0.80666567
C       0.22259213      0.11130934      0.03517589
C       1.14700357     -0.34910453      1.09579579
O       0.92588600     -1.26692271      1.84922305
C      -1.29131203     -0.02940274      0.31354712
C      -0.67198575     -0.95858718     -0.63026524
H       1.64571651      1.66926612     -0.55806655
H       2.09721945      0.21922912      1.16613122
H      -1.52528855     -0.38425789      1.30702098
H      -1.88827334      0.78145347     -0.07863504
H      -0.83329453     -0.80270545     -1.68727595
H      -0.47002641     -1.96785260     -0.30134734
