13
b3lypvtz=-218722.01259422
C       2.82434561     -0.97986270      0.41693049
C       1.75110693     -0.67063959     -0.02332210
C       0.46579449     -0.32624756     -0.56273239
C      -0.60745146      0.18811130      0.33711126
N      -0.71956334     -1.15422643     -0.23559078
C      -1.62257700      1.17296420     -0.16310653
F      -1.14594996      2.47272457     -0.00207039
H       3.77558638     -1.24498159      0.80609809
H       0.47580172      0.02241568     -1.58897806
H      -0.34825964      0.27942098      1.38581116
H      -0.46500491     -1.85545586      0.45217522
H      -2.55553087      1.08904451      0.39923333
H      -1.82829796      1.00673249     -1.22155928
