13
b3lypvtz=-213748.33897007
N      -2.78632330     -0.55422340     -0.09427325
C      -1.70503362     -0.24461520      0.14886910
C      -0.32627982      0.12099766      0.45085158
N       0.08874293      1.48105271      0.04751367
C       1.43086548      0.98923523     -0.34122789
C       0.82847164     -0.42946133     -0.45481129
O       1.55557978     -1.54631481     -0.04881838
H      -0.12088231     -0.12621415      1.50069193
H       0.05136382      2.18352257      0.77457445
H       2.17944420      1.03087457      0.46121382
H       1.84381371      1.44525395     -1.24031252
H       0.46244669     -0.63954220     -1.45635840
H       1.97030778     -1.37027161      0.80255318
