16
b3lypvtz=-204454.54626501
C      -1.52169512     -0.16447690      0.68235052
C      -0.39246869     -1.16862620      0.38825142
C       0.72178646     -0.26614763     -0.07660915
C       2.03450757     -0.48378475     -0.02655177
O       2.97501612      0.45251695     -0.40313294
N       0.16802589      0.97429977     -0.50536830
C      -1.29826235      0.92026115     -0.37739301
H      -2.51653462     -0.60366490      0.62478543
H      -1.39460366      0.25975223      1.67978796
H      -0.12091630     -1.77702142      1.24915464
H      -0.70175422     -1.84656933     -0.41449519
H       2.46743685     -1.41474988      0.30606598
H       2.56976623      1.32482727     -0.30842774
H       0.48687701      1.26918878     -1.41854217
H      -1.69879573      1.89012440     -0.07894156
H      -1.77838543      0.63407046     -1.32093414
