15
b3lypvtz=-216896.94012598
C       0.93320540     -0.91218970     -0.29646401
C      -0.57146524     -0.91269721     -0.57679473
C      -1.31359156     -0.74983940      0.73372374
C      -0.69975255      0.45064999      0.11825610
C       0.80521954      0.50325712      0.35222478
O       1.32615620      1.55010174     -0.45921590
O      -1.45400391      1.57158961     -0.15647936
H       1.54308171     -0.85918425     -1.19712020
H       1.30253714     -1.71235365      0.34997295
H      -1.05858187     -1.30080553     -1.45934069
H      -0.92640287     -1.18529398      1.65070021
H      -2.39203136     -0.77133793      0.64626318
H       1.14148634      0.61635371      1.38925329
H       2.28265364      1.57634777     -0.36587253
H      -0.91851061      2.13540169     -0.72910681
