12
b3lypvtz=-249501.97958464
O      -2.51280707     -0.83395576      1.20958560
C      -2.32724401     -0.40724868     -0.07530935
C      -1.16821437     -0.03917577     -0.60977386
O      -0.02376333     -0.07568700      0.16644833
N       1.09894674      0.34844120     -0.56976033
C       2.14604482      0.31248385      0.14436372
O       3.33863512      0.67645712     -0.35520877
H      -1.66231024     -0.82340955      1.66401525
H      -3.23750004     -0.39032050     -0.65340036
H      -1.04829119      0.29386155     -1.62672657
H       2.18228114     -0.00100764      1.18144029
H       3.21402244      0.93966117     -1.27867396
