12
b3lypvtz=-200470.33217717
C      -2.50088017      0.36209708     -0.97059853
C      -1.30664597     -0.14607074     -0.32152741
C      -0.29963336     -0.54699524      0.20527276
C       0.81434717     -1.11041517      0.88048567
N       2.04428260     -0.73656671      0.85983753
N       2.22636271      0.39516843      0.02881335
N       3.41662886      0.72776100      0.03206480
H      -2.97807908     -0.41725630     -1.56846819
H      -3.22752685      0.70120710     -0.22907885
H      -2.26667429      1.20174220     -1.62708620
H       0.60864602     -1.97767140      1.50294990
H       3.46917238      1.54719974     -0.58686482
