12
b3lypvtz=-249550.00085155
C      -2.22330663     -0.80553976      0.04370784
O      -0.92285509     -0.57346388     -0.50045672
C      -0.29858152      0.55140937     -0.12491590
N      -0.66057577      1.52323083      0.57796289
O       0.95126388      0.57854469     -0.72688503
C       1.92821106     -0.18258278     -0.16178804
O       1.81161554     -0.85560366      0.81454857
H      -2.18254956     -0.84572473      1.13328340
H      -2.53980910     -1.76727380     -0.34777803
H      -2.92304666     -0.03105230     -0.27656781
H      -1.60941396      1.43194985      0.92481850
H       2.84048481     -0.05950782     -0.75545868
