14
b3lypvtz=-201274.0460164
C      -3.40153523     -0.37334872     -0.13552914
C      -2.28442812      0.04261670     -0.00889357
C      -0.93590202      0.58879677      0.14919355
N       0.07403682     -0.45447090      0.15591815
C       1.29614371     -0.12008535      0.01056610
N       1.82327520      1.16503209     -0.03476989
N       2.27200217     -1.10585135     -0.12201141
H      -4.38493574     -0.75491917     -0.24893360
H      -0.78020516      1.32007480     -0.66138731
H      -0.91385710      1.16371149      1.08609046
H       2.63931052      1.27251146     -0.61705355
H       1.15893671      1.91162815     -0.15096919
H       1.88657082     -2.02208529      0.05239105
H       3.11188443     -0.93603869      0.41261436
