12
b3lypvtz=-252117.39273652
O      -2.62473769      1.08221101     -0.20993083
C      -1.58178466      0.36057533     -0.85885492
C      -0.43091122      0.08807439      0.06289076
N       0.75365776      0.37526194     -0.28938016
N       1.73844324      0.13067538      0.64809266
C       2.71499374     -0.58061130      0.31530890
F       2.83516374     -1.22209858     -0.85681851
H      -3.12746505      0.47979886      0.34601410
H      -1.23257567      0.97340680     -1.68781305
H      -1.95557211     -0.58437482     -1.27263162
H      -0.64741933     -0.35774776      1.03747659
H       3.55820724     -0.74517125      0.97144608
