15
b3lypvtz=-216932.20317774
C      -1.67371386      0.85915538     -0.68047709
C      -0.62534786      0.35348974      0.28495843
C      -0.34523998     -1.16873541      0.24768738
C       1.16142803     -1.20980315      0.30116464
C       1.60990072      0.02844590      0.10498834
O       0.65653325      0.99389506     -0.02465182
O       2.87073607      0.47607798     -0.00895681
H      -2.64360908      0.42111729     -0.43717261
H      -1.41818026      0.58180544     -1.70389693
H      -1.76650124      1.94415969     -0.62687431
H      -0.86910208      0.66130114      1.30517258
H      -0.74502285     -1.62245382     -0.66764555
H      -0.83005762     -1.66991579      1.08807801
H       1.77465279     -2.08819942      0.39678810
H       2.84352396      1.43965997     -0.04162920
