13
b3lypvtz=-213723.75868979
C      -3.14394629     -0.72940133     -0.00000174
C      -2.22880066      0.23728388     -0.00000192
N      -0.85694429      0.02768637      0.00000174
C       0.07947883      0.99572349     -0.00000181
C       1.42716268      0.77060783     -0.00000165
N       1.85414992     -0.53840833      0.00000143
O       3.07121948     -0.71386507      0.00000138
H      -2.87462495     -1.77733248      0.00000115
H      -4.19328992     -0.48087910     -0.00000449
H      -2.51031542      1.28314390     -0.00000473
H      -0.50363039     -0.92154928      0.00000327
H      -0.30141743      2.00958552     -0.00000465
H       2.14844143      1.57899960     -0.00000398
