14
b3lypvtz=-203682.76076042
C      -3.13790966      0.81099141      0.11334270
C      -2.28198586     -0.16316375      0.38679935
C      -1.18602015     -0.60874885     -0.54061557
N       0.09023241     -0.63713164      0.15797677
C       1.06872434     -0.00358105     -0.33262370
C       2.37581278     -0.03203609      0.37743756
O       3.35729842      0.53695511     -0.03254140
H      -3.92441685      1.08201826      0.80501030
H      -3.08839456      1.37034949     -0.81352681
H      -2.34257559     -0.70105453      1.32660236
H      -1.38658070     -1.64093097     -0.85162942
H      -1.16240490      0.01634226     -1.44188928
H       1.03178805      0.57841614     -1.26095542
H       2.37164726     -0.61997279      1.31385255
