13
b3lypvtz=-211345.89222365
C       0.33856777     -0.01116607     -0.40405489
C       1.51500337     -0.51004747      0.02154236
N       2.58478135     -0.50959271     -0.86417311
N       3.64267441     -0.98868072     -0.38994905
N      -0.78092815      0.03958600      0.38814578
C      -1.84774004      0.53869630     -0.12253424
N      -3.00199763      0.62480967      0.56818208
H       0.29163415      0.36685736     -1.42779629
H       1.65555010     -0.90638443      1.02242064
H       4.34647252     -0.92971886     -1.13692500
H      -1.90183023      0.91967162     -1.14762035
H      -3.02505532      0.31400181      1.52479226
H      -3.81713230      1.05196748      0.17166577
