14
b3lypvtz=-203675.74214226
O       2.01576636      1.56739762      0.49038703
C       1.15226319      0.78542320      0.20554230
C       1.12529016     -0.74660303      0.35356154
C      -0.30955805     -0.94677795     -0.15462137
C      -1.10942554      0.16369158      0.57379099
C      -0.23940312      1.04491927     -0.36758190
N      -0.26534722     -0.07570684     -1.39686004
H       1.28848266     -1.05315030      1.38683255
H       1.87065629     -1.21692301     -0.28621296
H      -0.67770941     -1.96311834     -0.26183744
H      -1.01446236      0.27447504      1.65657132
H      -2.15818696      0.18371324      0.27927017
H      -0.48133928      2.05839760     -0.66961337
H      -1.19712670     -0.07573808     -1.80912882
