17
b3lypvtz=-194380.07738819
C      -1.40925922      1.73373111      0.12310615
C      -0.89183438      0.39838163     -0.37611453
C      -1.66889281     -0.90239979     -0.04912107
C      -0.31275205     -1.61590701      0.15909597
C       0.36406956     -0.22388689      0.32333588
C       1.68513508     -0.00993215     -0.34339902
O       2.65793646      0.48355805      0.16966679
H      -1.59761765      1.70353374      1.19839151
H      -0.69254519      2.53516010     -0.06809815
H      -2.34575728      1.99918021     -0.37291321
H      -0.70811585      0.44849854     -1.45344550
H      -2.22227654     -0.80790880      0.88650653
H      -2.33965026     -1.29649834     -0.81190398
H      -0.21619352     -2.30546269      0.99551591
H       0.02610338     -2.11841978     -0.74857524
H       0.43117639      0.08219384      1.36745729
H       1.71923088     -0.34310975     -1.40602432
