13
b3lypvtz=-216141.33775814
C       1.69533986     -0.39499300     -0.24113284
C       0.21235449     -0.26422518     -0.17109323
C      -0.67308528      0.90456820     -0.64233681
C      -1.62599727      0.52208133      0.52413661
O      -2.56182983      1.05991988      1.03524954
C      -0.74686616     -0.65812557      0.89960526
O      -0.59975609     -1.42811538     -0.31790691
H       2.02111055     -0.48161608     -1.27988388
H       2.18047338      0.48093408      0.19195733
H       2.02525550     -1.28382048      0.29547325
H      -1.05786701      0.81864760     -1.65716372
H      -0.25686069      1.89962517     -0.47686763
H      -0.61237145     -1.17478056      1.83976303
