15
b3lypvtz=-193613.56588738
C       3.45952026      0.24273463     -0.01400366
C       2.06738999     -0.17904682      0.03994613
C       0.91553925     -0.51354719      0.08170510
C      -0.48008658     -0.91255808      0.13112569
C      -1.49369732      0.21722344     -0.10933488
C      -2.94687753     -0.20931509     -0.06411160
O      -1.16315661      1.35606068     -0.31806494
H       4.01960050     -0.33618750     -0.75118565
H       3.94877040      0.11445025      0.95371153
H       3.53459647      1.29657334     -0.28936823
H      -0.68514398     -1.69792627     -0.60552741
H      -0.71982195     -1.36448931      1.10065602
H      -3.58675971      0.65206613     -0.23647714
H      -3.14472137     -0.97037924     -0.82252297
H      -3.18457081     -0.65550895      0.90433403
