13
b3lypvtz=-190449.86753751
N       2.56457693     -0.75263684     -0.00006360
C       1.47130708     -0.39008187     -0.00003817
C       0.10036262      0.04599106     -0.00001803
C      -0.91761396     -1.06133148     -0.00000024
N      -2.17752703     -0.96180326      0.00005597
C      -0.21334211      1.34825277     -0.74080044
C      -0.21332021      1.34826260      0.74075284
H      -0.49062654     -2.06426573     -0.00002955
H      -2.50095338      0.00813160      0.00008855
H       0.60733925      1.81866118     -1.26156841
H      -1.15971436      1.36173547     -1.26379760
H      -1.15967662      1.36175588      1.26377847
H       0.60737734      1.81867664      1.26149021
