15
b3lypvtz=-170288.15151352
C      -3.98881375      0.21484867     -0.00016882
C      -2.54667275      0.04607679      0.00027775
C      -1.34710732     -0.09519862      0.00045043
C       0.00742459     -0.25600278      0.00048292
C       1.20693294     -0.40411828      0.00034497
C       2.65416103     -0.56303729      0.00007704
C       3.41449946      0.77318548     -0.00024758
H      -4.49666484     -0.74996657     -0.06683544
H      -4.32728543      0.70816959      0.91374596
H      -4.31321431      0.82244991     -0.84797724
H       2.94761393     -1.15220564      0.87433414
H       2.94722883     -1.15239268     -0.87418513
H       3.16326555      1.36197793     -0.88205342
H       4.49039663      0.59431185     -0.00051178
H       3.16372645      1.36215364      0.88157121
