17
b3lypvtz=-191984.3600973
N      -2.08432465      0.10232264     -0.59905958
C      -1.06244990      0.10465044      0.45487501
C      -0.16553305      1.30662630      0.21710569
N       1.07404788      1.31477269     -0.03810167
C       1.79769675      0.04895857     -0.15141003
C       0.92648379     -1.18431624     -0.38127421
C      -0.23357116     -1.18124208      0.61183915
H      -2.77807083     -0.61489421     -0.42391291
H      -1.67160465     -0.08699434     -1.50485731
H      -1.59780967      0.29843836      1.39008596
H      -0.67459395      2.27026333      0.26021489
H       2.52532725      0.16793224     -0.95692243
H       2.38629361     -0.06640279      0.76583832
H       0.53961142     -1.17056736     -1.40561280
H       1.52695596     -2.09144549     -0.28826034
H      -0.87873362     -2.05329496      0.48368272
H       0.16653580     -1.22874610      1.63004053
