16
b3lypvtz=-181144.26733809
C      -3.09478173     -0.85965886      0.00000531
C      -2.63259606      0.39183600      0.00002388
C      -1.21815401      0.76152670      0.00006647
N      -0.26976436     -0.09620248      0.00003995
C       1.04034315      0.35657693      0.00003257
C       2.07589414     -0.48933681      0.00000537
C       3.51054288     -0.07921871      0.00000141
H      -2.41549113     -1.70155866      0.00000757
H      -4.15628261     -1.06544318     -0.00000493
H      -3.33162728      1.22098231      0.00000443
H      -1.00168594      1.83778182      0.00004227
H       1.21130233      1.43695546      0.00005747
H       1.85234127     -1.55081784     -0.00001391
H       4.03339728     -0.47495937      0.87577856
H       4.03338029     -0.47492275     -0.87580238
H       3.62219279      1.00548844      0.00002299
