12
b3lypvtz=-202933.25209944
C       0.70073385     -1.45212848     -0.03210964
C      -0.62458027     -1.20941798     -0.07331686
C      -0.77984899      0.25326065     -0.01976765
N      -1.76550114      1.05463226     -0.02514986
C       0.61684239      0.81372784      0.05692142
C       1.49297130     -0.20339102      0.04927499
O       0.80660067      2.13548431      0.11792069
H       1.15618025     -2.43203423     -0.05445634
H      -1.42995462     -1.92252916     -0.13336383
H      -2.66227437      0.57293482     -0.07939289
H       2.56767048     -0.14888731      0.09292403
H      -0.07883955      2.53834831      0.10051594
