13
b3lypvtz=-213770.65257945
C       2.70548447      0.68802928      0.18864078
C       1.75297142     -0.20688512     -0.08043707
C       0.34159109      0.12431998     -0.02443621
N      -0.54923486     -0.75703570     -0.28863568
C      -1.90297536     -0.40861763     -0.22576058
N      -2.85287677     -1.20966497     -0.47605720
O      -2.17530017      0.87456827      0.12906825
H       2.45928779      1.70713284      0.46199197
H       3.75528443      0.43310783      0.14475145
H       1.99596407     -1.22662863     -0.35396638
H       0.08055570      1.14814931      0.25008798
H      -2.47225881     -2.11884943     -0.72211333
H      -3.13849300      0.95237398      0.12666415
