15
b3lypvtz=-214561.1840134
C      -1.99787943     -0.66021506     -0.64754117
C      -1.12383952     -0.13867459      0.49302620
C      -0.61817823      1.30737871      0.26410566
N       0.67333971      1.07530669     -0.36285425
C       1.17800528     -0.16991914     -0.01948564
O       2.29563180     -0.58521040     -0.23645162
N       0.14849764     -0.84560344      0.61774452
H      -2.93968648     -0.10962565     -0.69271960
H      -1.48881954     -0.55534970     -1.60674008
H      -2.23697744     -1.71510124     -0.50030341
H      -1.67909094     -0.19686246      1.43073900
H      -1.28973119      1.87124526     -0.38396476
H      -0.52600898      1.83885509      1.21725871
H       1.33811222      1.81937425     -0.49022889
H       0.18849111     -1.85144833      0.60871933
