15
b3lypvtz=-191177.4974971
N      -2.89288005      0.43715846      0.13439876
N      -2.25246048     -0.54275019     -0.28707956
C      -0.87540271     -0.56603654      0.05375649
C      -0.10765344      0.51974475      0.16955811
C       1.35173576      0.54792419      0.38592702
C       2.21831250     -0.68063284      0.38738934
C       2.31166501      0.27842532     -0.76391391
H      -3.84866434      0.34005769     -0.23451072
H      -0.47953361     -1.57159503      0.10152408
H      -0.59438280      1.48344626      0.06270583
H       1.66963428      1.34779750      1.04458315
H       3.03477826     -0.71183373      1.09519669
H       1.75613213     -1.64028951      0.20679379
H       3.18662801      0.90750010     -0.85008415
H       1.87292947     -0.02223441     -1.70487694
