16
b3lypvtz=-204439.53770049
C       2.19827705     -0.35566246      0.34985758
C       1.46365581      0.48605790     -0.66334932
O       1.97641259      0.85823008     -1.69404776
C       0.03330620      0.91170923     -0.33432736
N      -0.66582501     -0.02086484      0.53575991
C      -2.11638485      0.10592306      0.57872355
C      -1.48047481     -1.03726584     -0.12596905
H       1.72002821     -1.33297440      0.43838749
H       2.13876865      0.09948864      1.34033582
H       3.23425485     -0.47311653      0.04200654
H       0.11170212      1.87192224      0.18861250
H      -0.48171254      1.10216004     -1.28539442
H      -2.57751145      0.87163725     -0.03704886
H      -2.57266405     -0.03523691      1.55026425
H      -1.51383395     -1.03166171     -1.21087335
H      -1.46799884     -2.02034574      0.32706246
