16
b3lypvtz=-232773.39721582
C       2.56611105     -0.07063121      0.71107095
C       1.82510180     -0.48006205     -0.56239564
C       0.33312538     -0.72934149     -0.34899464
C      -0.48941572      0.52125983     -0.14772447
O      -0.05703648      1.64582603     -0.25105514
C      -1.96781362      0.35542306      0.18695760
F      -2.36379692     -0.97502256      0.24178877
H       2.46796232     -0.83441323      1.48638880
H       3.63062496      0.06499043      0.51512839
H       2.17994442      0.86806601      1.10753361
H       1.95074182      0.29287902     -1.32261628
H       2.27020838     -1.39298726     -0.96442876
H       0.15156412     -1.39753542      0.49913701
H      -0.10943092     -1.25391030     -1.20390559
H      -2.56156772      0.86610006     -0.57349646
H      -2.16303786      0.81799209      1.15674384
