15
b3lypvtz=-214539.29911222
C      -1.67662914     -1.41142914     -0.01818794
C      -1.60668173      0.09511774     -0.02202032
O      -2.53227452      0.78681161     -0.38151420
C      -0.32425934      0.75591286      0.48924239
N       0.84465705     -0.08955934      0.42252849
C       1.88260369      0.37912125     -0.13425806
N       3.07252555     -0.29658917     -0.18337170
H      -2.68219739     -1.72951391     -0.28173674
H      -0.95427218     -1.81432982     -0.73051198
H      -1.38785942     -1.80569954      0.95748340
H      -0.53279832      1.00011868      1.53978149
H      -0.21898849      1.71164895     -0.04048258
H       1.92639289      1.37911482     -0.58261022
H       3.73122700     -0.04305944     -0.89860944
H       3.04397335     -1.27244754      0.06640140
