11
b3lypvtz=-257142.96541023
C      -1.82761168      0.49252919      0.24916931
N      -0.96052260      0.13397775     -0.59919919
N       0.29621899     -0.15247623     -0.13138004
N       1.23227169     -0.28396628     -1.07889462
N       2.42218236     -0.33081291     -0.76139668
O       2.60835940     -0.18016506      0.66645655
O      -3.09802153      0.75743420     -0.11054390
H      -1.66949599      0.62055826      1.31828604
H       0.59870134      0.18540025      0.77657571
H       3.56804128     -0.19347047      0.73673666
H      -3.17012326      0.61603485     -1.06580983
