16
b3lypvtz=-204414.67197243
C       1.88158178     -0.97980878     -0.31617501
C       0.81615245      0.04204001     -0.44828522
N       2.04416827      0.34419034      0.30556891
C      -0.45549745     -0.02299323      0.34398919
C      -1.30267579      1.26478613      0.43353121
O      -2.43561166      0.61990381     -0.19419311
C      -1.69695223     -0.61108110     -0.36123134
H       2.47065565     -1.22197229     -1.19272203
H       1.75756124     -1.79714924      0.38404829
H       0.71569009      0.50159215     -1.42825344
H       2.67030701      0.91884536     -0.24759063
H      -0.25103469     -0.46877431      1.31600716
H      -1.54001565      1.61509767      1.44013552
H      -0.93345168      2.10580780     -0.16119172
H      -2.18368285     -1.44964815      0.14217813
H      -1.55719447     -0.86083616     -1.41766067
