16
b3lypvtz=-181160.00179301
C      -3.52261538      0.13639224     -0.19671510
C      -2.12185030     -0.39058064     -0.21527062
C      -1.09502664      0.12986091      0.44848360
C       0.30347694     -0.41102267      0.42658877
C       1.30451566      0.60653088     -0.16724660
C       2.67849923      0.11450986     -0.15606903
N       3.75415319     -0.29389767     -0.13902834
H      -4.22012149     -0.61655474      0.18015727
H      -3.85857438      0.39503916     -1.20453744
H      -3.61010696      1.02428222      0.42992343
H      -1.95221758     -1.27717464     -0.82201654
H      -1.25689406      1.01594775      1.05890896
H       0.34324227     -1.33410351     -0.15318771
H       0.62882974     -0.65782404      1.44090232
H       1.26993329      1.54254263      0.39513466
H       1.02810047      0.84507427     -1.19622564
