15
b3lypvtz=-191210.54636286
C       2.34896362     -0.58281540      0.43684280
N       1.26650707     -0.64905500     -0.21293732
C       0.33347400      0.40240854     -0.13579271
C       0.65776155      1.67838512     -0.36956233
C      -1.08829140     -0.02117824      0.07965298
C      -1.42762459     -1.45472321     -0.24517012
N      -1.91111016      0.84457287      0.51747730
H       2.58522423      0.24039321      1.11837923
H       3.08499864     -1.37480326      0.32414526
H      -0.11166057      2.43503464     -0.37697327
H       1.67464532      1.96540939     -0.59788923
H      -0.88664818     -2.13724950      0.41233843
H      -2.49783210     -1.62524286     -0.13340845
H      -1.12339967     -1.70623363     -1.26217454
H      -2.84600977      0.44598234      0.59792695
