15
b3lypvtz=-212096.9172299
C       3.26542211     -0.49516949     -0.40584220
C       2.28200147      0.50707146      0.19564702
N       1.02664877     -0.14059971      0.52563159
C      -0.02711959      0.31406612      0.00081003
N      -1.26738432     -0.27978290      0.28629523
N      -2.20148810      0.31204170     -0.30836708
N      -3.39030201     -0.24386382     -0.11212448
H       2.89135764     -0.88354604     -1.35429112
H       3.41091519     -1.33803356      0.26980130
H       4.23179291     -0.02149233     -0.58668051
H       2.14490812      1.35923422     -0.48616767
H       2.70117060      0.89978658      1.12689007
H      -0.05726446      1.17186274     -0.68519051
H      -4.17248700      0.33908849     -0.35097719
H      -3.47399233     -0.92794446      0.63246854
