19
b3lypvtz=-192738.64103686
C      -3.41145108      0.13750160      0.06922665
C      -2.21583463     -0.40099573     -0.18749824
N      -0.98041876      0.19612660     -0.00895846
C       0.20224841     -0.60786549      0.26819863
C       1.46710321     -0.00292833     -0.34710710
C       2.70310089     -0.78044694      0.08889463
N       1.58483546      1.39713094      0.08940837
H      -4.31417490     -0.39698663     -0.18248496
H      -3.51795200      1.12115017      0.50950431
H      -2.15443644     -1.39210127     -0.62528427
H      -1.01138708      1.04829893      0.53184879
H       0.04048211     -1.60247660     -0.15123030
H       0.35788993     -0.72773363      1.34852989
H       1.36988364     -0.08040726     -1.43911405
H       2.61529539     -1.83659351     -0.17051548
H       2.84412846     -0.70010850      1.16839588
H       3.59972533     -0.39341185     -0.39953302
H       0.93719381      1.97551548     -0.43340068
H       2.51178228      1.75176303     -0.11450060
