18
b3lypvtz=-181884.04866096
C       1.89453567      1.71400578      0.10487725
C       1.36856226      0.64100135      0.21183798
C       0.79721511     -0.69804085      0.38241476
N       0.88388809     -1.43925561     -0.88852681
C      -0.65882318     -0.70239168      0.90739703
C      -1.76433280     -0.29047172     -0.07229472
C      -1.80381433      1.19153547     -0.44621595
H       2.33992657      2.67212754      0.00516118
H       1.39824329     -1.17021419      1.17444533
H       0.65932667     -2.41513796     -0.72708497
H       1.83005869     -1.40517286     -1.24853509
H      -0.86000445     -1.72617150      1.23933576
H      -0.69468232     -0.07899717      1.80442684
H      -2.71888455     -0.56524750      0.38593039
H      -1.67296236     -0.88944951     -0.97967010
H      -0.92182194      1.48780453     -1.01118881
H      -2.68144980      1.40601901     -1.05909401
H      -1.85641460      1.82484188      0.44255894
