14
b3lypvtz=-201288.22739165
C      -0.38569304     -1.81482982     -0.75720616
C      -0.61782997     -0.54065018     -0.40348460
N      -1.95253396     -0.08390035     -0.46966207
C      -2.21089545      1.14118165     -0.26172170
N       0.37801991      0.37450863     -0.04211987
C       1.26926653      0.02210470      0.79590931
N       2.35599473      0.78894811      1.08338867
H      -1.21418285     -2.44403293     -1.04318964
H       0.61523865     -2.21766975     -0.80330333
H      -3.24713341      1.46480799     -0.31786333
H      -1.44911138      1.88877677     -0.03817828
H       1.24088093     -0.93544263      1.32498117
H       2.36663592      1.72879432      0.72122616
H       2.85134339      0.62740346      1.94202255
