21
b3lypvtz=-172608.20007249
C      -3.76309890     -0.48478608     -0.08548820
C      -2.43750310      0.15209461     -0.36987759
C      -1.38663554      0.14035600      0.44354747
C      -0.05656889      0.77205722      0.15794365
C       1.10262121     -0.23525370      0.13466080
C       2.46576372      0.41309939     -0.11074338
C       3.61755046     -0.59076407     -0.13253058
H      -4.01606163     -1.23015759     -0.84498712
H      -4.56840097      0.25543073     -0.09605358
H      -3.77007326     -0.97756453      0.88742848
H      -2.34934924      0.66518721     -1.32514110
H      -1.47270621     -0.37447220      1.39904111
H      -0.10004044      1.30323766     -0.79709904
H       0.15806123      1.52757213      0.92348260
H       0.90840709     -0.98477720     -0.63879044
H       1.12669262     -0.77924314      1.08509509
H       2.65124862      1.16441050      0.66346517
H       2.43923309      0.95776679     -1.05985823
H       4.57457270     -0.09737041     -0.31038952
H       3.69229899     -1.12622191      0.81664366
H       3.47740344     -1.33517441     -0.91947425
