14
b3lypvtz=-203651.34943711
O       2.06520261      0.45542086     -1.23819916
C       0.92479485      0.39880195     -0.51178784
C       0.00259168      1.33395350     -0.27082355
C      -1.02840595      0.51451669      0.53516836
C      -1.12721193     -0.79501291     -0.31115975
C       0.35256882     -0.85395590      0.18569532
N      -0.18100002     -0.31045095      1.47987546
H       2.55074645     -0.36972534     -1.13920784
H      -0.06636471      2.35907444     -0.59124540
H      -1.89895665      1.02093547      0.94273347
H      -1.75305728     -1.56335246      0.13976511
H      -1.29935228     -0.69203684     -1.37919497
H       0.94781236     -1.76730125      0.20494599
H       0.51073203      0.26913273      1.95363479
