11
b3lypvtz=-262172.02529841
C      -1.27136090     -0.92225772     -0.98477739
C      -0.52079485     -0.18005005     -0.15650957
N      -1.01621678      0.74521346      0.74517833
N       0.84937785     -0.45693284     -0.23235756
N       1.54289935      0.25897920      0.49119472
O       2.88209586     -0.08885925      0.33086018
F      -2.60620418     -0.73758944     -1.02717873
H      -0.88876537     -1.68484738     -1.64059538
H      -0.35963419      1.46532125      1.00162852
H      -1.93908671      1.08864902      0.53246140
H       3.32768993      0.51237375      0.94009551
