14
b3lypvtz=-203631.7270087848
C      -1.17458339     -0.40778865      0.91511146
C      -1.10226722      0.75976330     -0.03029781
C       0.12998219      0.31138985      0.73886101
N       0.74928535     -0.10410943     -0.54337877
C      -0.39577802      0.37910170     -1.33773230
C       1.83513574     -0.74189907     -0.92576220
O       2.63984583     -1.07014616      0.09625147
H      -1.27937465     -1.41693800      0.53594778
H      -1.69222346     -0.21325256      1.84551694
H      -1.67856559      1.65857808      0.11750848
H       0.67813854      0.81497841      1.52193450
H      -0.86507323     -0.38405910     -1.95873403
H      -0.12324787      1.23998508     -1.94724745
H       2.27872580     -0.82560345      0.97202092
