13
b3lypvtz=-239463.71125874
C      -0.77716446      0.28551201      0.01808822
C      -1.68882371     -0.67572798     -0.17255051
O      -3.04265724     -0.51904416     -0.15933813
C       0.65328936      0.06947286      0.02892759
C       1.57294090      1.04528105      0.03013383
O       2.91338478      0.82439935      0.06454676
O       1.13872602     -1.23640260     -0.00251754
H      -1.10689328      1.30675501      0.18352631
H      -1.42235213     -1.70301694     -0.37873586
H      -3.26074620      0.40473434      0.00913791
H       1.30859057      2.09041408     -0.01842806
H       3.04315379     -0.13398531      0.09117909
H       0.66855159     -1.75839171      0.65819032
