16
b3lypvtz=-225337.06070355
N      -3.07235280     -0.24019557     -0.14257671
N      -1.78816131      0.24744932     -0.16925138
C      -0.87577710     -0.38848136      0.44216395
C       0.54243652      0.12122712      0.48945883
N       0.75053982      1.46270132     -0.05838953
C       1.49474350     -0.83559130     -0.25100022
O       2.82770054     -0.38250727     -0.15759242
H      -3.14210440     -1.24934375     -0.03846636
H      -3.58230079      0.08577813     -0.94900650
H      -1.07886040     -1.34365970      0.94181696
H       0.87132053      0.13743889      1.53377887
H       0.16461074      1.57948460     -0.87916646
H       0.43860873      2.16419596      0.60190564
H       1.45317318     -1.83557232      0.18488370
H       1.17000486     -0.91251361     -1.29898810
H       2.77139738      0.57553454     -0.29234428
