14
b3lypvtz=-203653.54806088
C      -0.38521887      1.24225251     -0.44493276
C      -0.69472590     -0.15513620     -0.90213081
C       0.14025673      0.09474200      0.35410837
O      -0.87744079     -0.44784655      1.20955780
C      -1.68859014     -0.79962970      0.04978337
C       1.54346690     -0.19287551      0.67127289
N       2.50012885      0.35544826      0.04275353
H      -1.15974366      1.85873773     -0.00366329
H       0.36518614      1.75825096     -1.02780228
H      -0.36839220     -0.54980765     -1.85169714
H      -1.75397746     -1.88418951     -0.04875322
H      -2.68971230     -0.36581318      0.10175906
H       1.66958714     -0.92517921      1.47625048
H       3.39917558      0.01104606      0.37349402
