16
b3lypvtz=-181158.54659854
C      -3.35619444      0.22668985     -0.06604301
C      -2.13460068     -0.69473231      0.05123551
C      -0.87206939      0.05015030      0.36380523
C       0.21691552      0.06501425     -0.39451375
C       1.46435862      0.84816164     -0.06294498
C       2.65416992      0.00031335      0.03352734
N       3.58358748     -0.67447063      0.09974493
H      -4.26158076     -0.35066424     -0.25745075
H      -3.51165671      0.79440581      0.85349697
H      -3.23086260      0.94089172     -0.88113488
H      -2.00581073     -1.26397561     -0.87189006
H      -2.31961089     -1.42530225      0.84570495
H      -0.87565817      0.62588316      1.28745501
H       0.24714576     -0.50696916     -1.31624274
H       1.66073945      1.60172234     -0.83230819
H       1.34102362      1.38199880      0.88132941
