17
b3lypvtz=-191977.55748044
C       2.39217694     -0.33069184      0.72664600
C       1.65593510     -0.87517484     -0.24744702
N       0.37761696     -0.53407511     -0.66322478
C      -0.40372956      0.53743471     -0.19255376
N       0.23593729      1.78276267     -0.26709448
C      -1.68635308      0.39110327      0.17527147
C      -2.42207772     -0.90694383      0.31341369
H       3.39248437     -0.69706608      0.89861521
H       2.02999421      0.45754508      1.36968482
H       2.07102924     -1.68686241     -0.83439553
H      -0.12161349     -1.24300559     -1.16875482
H      -0.00107501      2.42120787      0.47481381
H       1.23072502      1.72876901     -0.41265532
H      -2.24596110      1.29902812      0.36937743
H      -2.99749997     -0.93391373      1.24295382
H      -1.74537305     -1.76296958      0.33473418
H      -3.13973314     -1.07295773     -0.49868372
