15
b3lypvtz=-214523.74434463
C      -1.64761855     -1.67689231     -0.00000872
C      -0.82391012     -0.42063860     -0.00000023
C      -1.42640680      0.77267441     -0.00000752
O      -0.75133560      1.97565057      0.00000077
N       0.55829863     -0.66719721      0.00001976
C       1.62014495      0.21845346      0.00000224
N       2.85857957     -0.07865266     -0.00000871
H      -1.43387728     -2.28784592     -0.88226057
H      -1.43389690     -2.28784420      0.88224900
H      -2.71123531     -1.44958707     -0.00002086
H      -2.50551107      0.82405610     -0.00002148
H      -1.38716837      2.69448946     -0.00000093
H       0.81572897     -1.64222351      0.00000664
H       1.32285532      1.25933791      0.00000277
H       3.00996356     -1.08998143     -0.00000717
