13
b3lypvtz=-213755.39949331
C      -2.23275125     -0.33388187      0.11808998
N      -1.26666592     -0.50719379      0.90926726
C      -0.19735109      0.46751491      0.91579516
C       1.16050076     -0.22578727      0.69194991
O       2.25050586      0.63612756      0.96725063
C       1.25006837     -0.78051773     -0.67173796
N       1.31914616     -1.16199963     -1.75488844
H      -2.30955564      0.51937456     -0.56612792
H      -3.04151028     -1.06019213      0.10014996
H      -0.33299575      1.26880674      0.17469657
H      -0.14135309      0.91815987      1.90856927
H       1.23925044     -1.05233605      1.39862108
H       2.30261143      1.31202482      0.28216450
