15
b3lypvtz=-214489.65806766
C       1.46450613      1.56183661     -0.11402910
C       0.69925748      0.48963204      0.09032682
N       1.22108778     -0.81395276      0.35566994
N       2.28303886     -1.08828080     -0.22453645
O      -0.64180343      0.58843150      0.25805064
C      -1.45851923     -0.44582511     -0.32315945
C      -2.89427861     -0.16694945      0.06251979
H       2.53711542      1.45873114     -0.13306056
H       1.01844808      2.53895369     -0.21784223
H       2.56566370     -2.02054858      0.10934373
H      -1.13136843     -1.41948399      0.04533895
H      -1.33099351     -0.42692446     -1.41037016
H      -3.21030342      0.81112908     -0.30054357
H      -3.01184323     -0.18652474      1.14605274
H      -3.54986461     -0.92418815     -0.36983511
