15
b3lypvtz=-191202.04325809
C      -2.70002641     -0.26275115     -0.32763452
N      -1.57607145     -0.50744922      0.19067996
C      -0.40088445      0.08352235     -0.39778858
C       0.54124576      0.81122413      0.61000091
C       1.70135633      0.01528020      0.01854480
N       2.95708846      0.08892607     -0.00006329
C       0.75405598     -0.91569920     -0.71514606
H      -3.59535755     -0.70287575      0.10501578
H      -2.83222245      0.37936749     -1.20736370
H      -0.63565236      0.71812702     -1.26113179
H       0.31774899      0.50859065      1.63487534
H       0.59494977      1.89842522      0.55566973
H       3.29016260      0.86539907      0.57427473
H       0.97236965     -1.12339197     -1.76143292
H       0.61123711     -1.85669493     -0.18070036
