16
b3lypvtz=-204452.13709299
C      -3.09018263      0.80916990     -0.00006831
C      -2.61998652     -0.43305025      0.00013736
C      -1.18257427     -0.86161451      0.00007621
C      -0.14841032      0.25701974     -0.00028804
N       1.19782168     -0.31518892     -0.00045978
C       2.18744311      0.45687682      0.00038522
O       3.46011887      0.00858708      0.00013632
H      -2.44477327      1.67805743     -0.00030640
H      -4.15471865      1.00274966     -0.00000543
H      -3.33460672     -1.25159745      0.00037566
H      -1.00099827     -1.50506264      0.86782044
H      -1.00117406     -1.50541273     -0.86744385
H      -0.29453785      0.89090272      0.88078225
H      -0.29478437      0.89048148     -0.88161615
H       2.16551911      1.54878837      0.00110799
H       3.41362714     -0.95953469     -0.00067749
