15
b3lypvtz=-191188.04763818
C       2.16658378     -1.56240000      0.08221074
C       1.35080077     -0.71051282      0.30705727
C       0.38686261      0.36765444      0.57461558
N       1.00529697      1.69726493      0.68286456
C      -0.72574436      0.42413575     -0.49578916
C      -1.54831544     -0.83282123     -0.59014113
N      -2.80327100     -0.94013116     -0.45737144
H       2.88566884     -2.31893159     -0.11176573
H      -0.08961980      0.16332641      1.53759527
H       1.52012279      1.90346619     -0.16719921
H       1.68647255      1.69778760      1.43388068
H      -1.36350940      1.27883422     -0.26602340
H      -0.25228943      0.60981227     -1.46640644
H      -0.99114077     -1.74849197     -0.79875794
H      -3.22801811     -0.02909304     -0.26476964
