15
b3lypvtz=-216898.34041964
C       2.93663053     -0.48190775      0.14564453
C       1.96683540      0.10689156     -0.24407260
C       0.77687843      0.81786648     -0.69398631
C      -0.51380673      0.37761697      0.02321602
C      -0.92170949     -1.04709293     -0.31727407
O      -2.09912426     -1.43088339      0.36846060
O      -1.61111564      1.20040457     -0.38982742
H       3.79773957     -1.00206430      0.48369862
H       0.91572231      1.89054553     -0.53039287
H       0.64202153      0.68525363     -1.77109077
H      -0.37524985      0.45201768      1.10631887
H      -1.05328122     -1.12281001     -1.40519263
H      -0.13622504     -1.74025143     -0.01994410
H      -2.75657771     -0.74903820      0.18848105
H      -1.56873784      2.04345159      0.07032075
