13
b3lypvtz=-213764.0077875
C      -2.30678903      0.05327771     -0.19601857
C      -0.85609628     -0.01516823      0.11595533
C       0.26062090      0.01318847     -0.65246560
C       1.32758563     -0.10446845      0.28819749
N       2.67798776     -0.19996829      0.00422202
N       0.88733458     -0.18552425      1.52063296
O      -0.51926272     -0.13881266      1.41023017
H      -2.81905371     -0.84547227      0.15213815
H      -2.76952199      0.90901865      0.29895177
H      -2.45909487      0.14721434     -1.26926701
H       0.32455469      0.08616219     -1.72362905
H       3.26507969     -0.09007865      0.81798375
H       2.98665535      0.37053144     -0.76693141
