16
b3lypvtz=-204461.23583603
C       2.37489436     -0.46084957      0.02202149
N       1.02493955     -0.08329393     -0.33459138
C       0.59467996      1.21848976      0.18237713
C      -0.90437323      1.23656947     -0.10918618
C      -1.29708224     -0.23440626     -0.00879425
O      -2.41212224     -0.68119729      0.04167458
C      -0.00355184     -1.04030069      0.04115659
H       2.51155377     -0.58169042      1.11090430
H       3.07507904      0.30045296     -0.32522390
H       2.63902755     -1.40394149     -0.45816021
H       0.77214319      1.30677816      1.26906712
H       1.14715199      2.02014653     -0.30830316
H      -1.49976962      1.84772945      0.56659288
H      -1.10599122      1.56669114     -1.13127526
H      -0.04170271     -1.90326107     -0.62480145
H       0.10982168     -1.42072174      1.07501170
