14
b3lypvtz=-201291.11348343
C       3.24736400     -0.96378660     -0.89851553
N       2.04697102     -0.62612816     -1.15212639
C       1.22410738     -0.22691631     -0.11142662
C      -0.04774794      0.13429785     -0.35626234
N      -0.90927714      0.53577329      0.64181570
C      -2.10281881      0.85755070      0.31024241
N      -3.00999688      1.31001613      1.21197586
H       3.67234486     -0.95617919      0.11174740
H       3.89487112     -1.27716628     -1.71173421
H       1.60898850     -0.20500407      0.90890148
H      -0.39891958      0.10281086     -1.38954340
H      -2.47161405      0.82010085     -0.72022365
H      -2.77255786      1.25367681      2.18859902
H      -3.98171463      1.35330939      0.96655030
