9
b3lypvtz=-233132.23579763
N       1.82872943      0.38920976     -0.00047305
N       0.76814787      1.16445383     -0.00192309
C      -0.21133755      0.26387668     -0.00106489
C      -1.63401217      0.66747019     -0.00214451
O      -2.55434281     -0.10591451     -0.00145845
N       1.55987147     -0.91624717      0.00119686
N       0.26714309     -1.00951857      0.00083464
H       2.77317516      0.74506514     -0.00059833
H      -1.77707650      1.76346265     -0.00366518
