17
b3lypvtz=-215294.68995289
N      -0.79325689      1.65009012      0.27653645
C      -1.32851213      0.52709987     -0.00234512
N      -2.66480755      0.20544876      0.15819558
C      -0.51399487     -0.57805928     -0.64959069
C       0.98817934     -0.31225257     -0.73780289
C       1.71056779     -0.45917089      0.59751268
O       3.11519922     -0.23698557      0.48057591
H      -1.46479303      2.30176116      0.68202325
H      -2.91751945     -0.76820456      0.18524360
H      -3.21752667      0.79827734      0.75551295
H      -0.70069959     -1.51331611     -0.10858123
H      -0.92267251     -0.73221486     -1.65259869
H       1.14449827      0.69895682     -1.11787273
H       1.43650726     -1.00747170     -1.45090958
H       1.60888766     -1.48173503      0.96901009
H       1.26930324      0.21430652      1.33688220
H       3.25053990      0.69376997      0.27820822
