16
b3lypvtz=-204432.86627077
C      -1.92689475      0.10474502      0.27003103
N      -1.44813616     -0.28357382     -1.07234506
C      -0.48312719      0.10906259     -0.03406393
C       0.33364155      1.37544949     -0.29962311
O       1.69127300      1.05539033      0.01607531
C       1.82898846     -0.36307640     -0.00031281
C       0.50646921     -0.88262466      0.56212078
H      -2.30746896     -0.66657096      0.93057438
H      -2.47881605      1.03682999      0.30234430
H      -1.47366829     -1.29372095     -1.17115202
H       0.23069768      1.66682439     -1.34951599
H       0.03646514      2.21406650      0.33237754
H       1.98878972     -0.72701812     -1.02421665
H       2.70030259     -0.62006634      0.60006180
H       0.51274135     -0.81078512      1.65187479
H       0.28854270     -1.91503195      0.28586964
