21
b3lypvtz=-193505.79529562
C       2.27651074      1.22472690     -0.01185071
C       1.20257855      0.15973327     -0.26486951
N       1.74575841     -1.19197672     -0.47340726
C       0.17819663      0.13543960      0.87560812
C      -1.00211309     -0.82162175      0.67589437
C      -1.93798606     -0.46213959     -0.47867358
N      -2.50829879      0.88115373     -0.31110318
H       1.83857631      2.22175089      0.07586801
H       2.81921972      1.01399988      0.91408865
H       3.00304119      1.24767042     -0.82721207
H       0.68117545      0.42572605     -1.18882682
H       2.39015079     -1.19670252     -1.25600095
H       2.28197798     -1.47743409      0.34065127
H       0.70179997     -0.13888802      1.79930092
H      -0.20097619      1.14815689      1.01980783
H      -1.58773839     -0.85220621      1.60160058
H      -0.62619810     -1.83225374      0.50885218
H      -2.69939752     -1.25026363     -0.56399120
H      -1.38222970     -0.47047468     -1.41862762
H      -3.12830532      0.90007509      0.49147302
H      -3.07072159      1.13265425     -1.11505506
