13
b3lypvtz=-213765.94747576
C      -1.24564033      0.87492078     -0.25426819
C      -0.28321198     -0.30780621     -0.06646813
C       1.11367221      0.19833902      0.29666720
N       2.07606200     -0.13249657     -0.44491611
C      -0.74558206     -1.14316797      1.07310674
N      -1.10084905     -1.76904329      1.97062148
O      -0.23717274     -1.07592194     -1.23961335
H      -2.23131149      0.49492723     -0.51566017
H      -0.87947335      1.49843274     -1.06881805
H      -1.32756379      1.46995862      0.65553553
H       1.18508738      0.82320428      1.18931595
H       2.96880967      0.24872915     -0.14119264
H       0.70717353     -1.18007584     -1.45431026
