14
b3lypvtz=-203676.85822433
C      -1.52988728     -1.37172129      0.39144360
C      -0.76091154     -0.31552627      0.15247485
N      -0.88392332      1.05785562      0.40413865
C       0.24518095      1.40050471     -0.47838289
C       0.59667086     -0.12091375     -0.52786314
C       1.76016895     -0.51679849      0.34276022
O       2.63714101     -1.26849209      0.00544144
H      -1.19602844     -2.36043769      0.11508181
H      -2.49997843     -1.27415796      0.85951602
H      -1.77035226      1.54075039      0.38057702
H      -0.03890726      1.78677639     -1.45946802
H       0.98333830      2.06375398     -0.02480333
H       0.70427249     -0.56196359     -1.51521538
H       1.75341599     -0.05972996      1.35429915
