11
b3lypvtz=-238710.80027276
C      -0.75769894     -1.11231092      0.89643859
C      -0.76147804      0.09704598      0.32241397
O      -1.79313240      0.96056800      0.46562038
C       0.33239114      0.62582908     -0.51744393
O       0.23247900      1.74555899     -0.99634331
C       1.62347690     -0.13027043     -0.85237176
O       1.93004639     -1.23272627     -0.49138044
H       0.08011884     -1.77387666      0.76131499
H      -1.59713819     -1.43005251      1.49855280
H      -1.55994768      1.75811708     -0.03839772
H       2.27098298      0.49201766     -1.49840358
