16
b3lypvtz=-204430.74868357
C      -2.92284564      0.22953586      0.53912607
N      -1.67550314     -0.49042735      0.70042122
C      -0.73837068     -0.26130636     -0.11244086
C       0.59026566     -0.95678780     -0.02303445
C       1.71104712      0.00551901      0.30249714
C       2.47674144      0.70050815     -0.73648388
O       3.03568366     -0.41382407     -0.03409674
H      -3.14110917      0.77690466      1.45830195
H      -3.73374016     -0.48813457      0.39919058
H      -2.92102426      0.93384061     -0.30377917
H      -0.84980913      0.47215478     -0.92619547
H       0.52931948     -1.73080255      0.74256933
H       0.82074422     -1.43724365     -0.97859674
H       1.63801799      0.48176937      1.27718406
H       2.93431186      1.66097713     -0.52265018
H       2.24637075      0.51721678     -1.78181285
