15
b3lypvtz=-214546.25810443
C      -2.30595355     -0.67674550      0.35698646
N      -0.88099611     -0.46951741      0.16236280
C      -0.42267421      0.57544407     -0.58741269
C       0.82140970      1.10451365     -0.63631705
C       1.98991683      0.71361686      0.15695782
N       1.97165903     -0.58067478      0.69647778
O       2.92427701      1.46473966      0.37858479
H      -2.74943102      0.02769582      1.06944218
H      -2.82432674     -0.57131920     -0.59581276
H      -2.47993139     -1.68887063      0.71972507
H      -0.28459343     -0.74641906      0.92937909
H      -1.18362690      1.01356332     -1.22489218
H       0.97656427      1.96695555     -1.26605836
H       2.85997219     -0.83159958      1.10704819
H       1.58783432     -1.30148276      0.10152887
