20
b3lypvtz=-182658.74905373
C      -2.95908177     -0.32257490     -0.04863764
C      -1.43581900     -0.45018798     -0.08503608
C      -0.72894690      0.89612126      0.09427235
C       0.80116160      0.88477486      0.10562963
C       1.52270872      0.14064646     -1.05156832
C       1.89833109     -0.94186941     -0.01457409
N       1.46877921     -0.03028776      1.07325397
H      -3.29832758      0.09316513      0.90273192
H      -3.44320583     -1.29182535     -0.17855845
H      -3.31861456      0.33668931     -0.84185384
H      -1.11661306     -1.14257343      0.69926976
H      -1.13795684     -0.90438879     -1.03344372
H      -1.05094505      1.58041487     -0.69919140
H      -1.06836507      1.35029782      1.03286403
H       1.13498943      1.91765487      0.24018147
H       0.90331496     -0.17903051     -1.88733858
H       2.38080830      0.68627609     -1.43879773
H       2.95183771     -1.22322500      0.03853314
H       1.30088332     -1.85385145     -0.11054532
H       0.86271033     -0.43983908      1.77300786
