11
b3lypvtz=-236315.24799176
C       1.46643337     -0.17277607     -0.11307785
N       2.32090438     -1.08242004     -0.32190720
C       0.04031418     -0.48814728      0.25928445
O      -0.35926449     -1.62951212      0.37823171
C      -0.92813364      0.64560202      0.49329728
N      -0.54063947      1.84414154      0.37696833
O      -2.16702267      0.24116419      0.81803416
H       1.73597096      0.87437806     -0.19635808
H       1.88390602     -2.00271791     -0.19710934
H      -1.29702605      2.50290685      0.56270602
H      -2.15544259     -0.73261925      0.82842718
