16
b3lypvtz=-181113.6891089
C      -2.02463657     -1.68206182     -0.22683729
C      -1.08526991     -1.01355888      0.10405218
C       0.06225077     -0.20549265      0.52187490
C       1.22937588     -0.39342912     -0.42113091
C       2.44711752     -0.75937835     -0.04522770
C      -0.31877977      1.29341855      0.67016359
N      -0.62860247      1.91341634     -0.61395111
H      -2.85593809     -2.27066685     -0.52400369
H       0.37120843     -0.54721878      1.51547086
H       1.01642968     -0.20380833     -1.46745724
H       3.25156507     -0.86478990     -0.76139336
H       2.68466702     -0.97453527      0.99040292
H       0.50205077      1.78271079      1.21059402
H      -1.20614894      1.35099409      1.30153268
H      -1.19581878      2.74071594     -0.48808846
H       0.21408438      2.19942024     -1.09610639
