17
b3lypvtz=-171082.47595359
C      -1.52568784     -1.54665483     -0.05765630
C      -0.46914309     -0.74285563      0.05206657
C       0.97175628     -1.20632719      0.16961475
C       1.79500204     -0.00000031     -0.31167493
C       0.97175698      1.20632686      0.16961523
C      -0.46914263      0.74285615      0.05206674
C      -1.52568687      1.54665599     -0.05765618
H      -1.41449594     -2.62315044     -0.06977626
H      -2.53397295     -1.16225431     -0.14014313
H       1.20282258     -1.41385825      1.22014381
H       1.16584981     -2.12116760     -0.38957863
H       1.84729303     -0.00000010     -1.40291088
H       2.81611568     -0.00000068      0.06890570
H       1.16585109      2.12116740     -0.38957774
H       1.20282335      1.41385733      1.22014439
H      -2.53397219      1.16225609     -0.14014328
H      -1.41449434      2.62315153     -0.06977585
