8
b3lypvtz=-248199.50225223
C      -1.08561768     -0.41590029     -0.45651937
N       0.02481332     -1.07804600     -0.15613210
C       1.05207908     -0.27374419     -0.01668521
N       1.06187551      1.04599812     -0.14359126
N      -0.08557648      1.62441272     -0.44372709
N      -1.17860957      0.90710340     -0.60557102
F       2.20766998     -0.82488486      0.28244066
H      -1.99663415     -0.98493890     -0.59432303
