16
b3lypvtz=-202057.54409827
N      -1.69651270      0.04496129     -0.94161254
C      -1.08778014      0.02227978      0.38906100
C      -0.22280464      1.27707146      0.57364173
N       1.05873717      1.24421480     -0.13718471
C       1.54927992      0.09880099     -0.40001596
N       0.99128689     -1.12548350     -0.13174379
C      -0.21495473     -1.21439794      0.67421909
H      -2.15720204     -0.83366118     -1.14878279
H      -0.98845604      0.18524135     -1.65283988
H      -1.89750001      0.03881493      1.12295151
H      -0.02602245      1.43791121      1.63823800
H      -0.78393152      2.14451015      0.22403735
H       2.50162129      0.04355659     -0.92512635
H       1.55922196     -1.94341358     -0.26178995
H      -0.75501817     -2.12726182      0.41488545
H       0.01980121     -1.26228453      1.74520583
