15
b3lypvtz=-191230.13759142
C      -2.03563856      1.05966427     -0.34456992
C      -0.88112974      0.19077367      0.06284676
C      -0.88874024     -1.13617412     -0.11180022
N       0.11256923     -2.02733709      0.25906337
C       0.30593649      0.88070591      0.71622935
C       1.54419400      0.78677193     -0.06189167
N       2.51210451      0.66378296     -0.67322166
H      -2.44376367      1.61682996      0.50574510
H      -1.74171161      1.80075565     -1.09506201
H      -2.84502595      0.46548518     -0.76924478
H      -1.76887308     -1.60637268     -0.53443231
H       1.05849780     -1.67568506      0.23568164
H       0.05232640     -2.93205171     -0.17810425
H       0.08933495      1.93791098      0.87697180
H       0.51039348      0.45044714      1.70325278
