13
b3lypvtz=-213739.16648838
C       0.25001104     -0.30184524      0.11105549
C       1.28388428      0.53973181     -0.07887075
N       2.57910722      0.07520149      0.13563919
N       3.46579542      0.93689010     -0.06872054
C      -1.13218741      0.03434983     -0.07032224
C      -2.12060223     -0.85161472      0.13547216
O      -3.44355281     -0.62934133     -0.00798973
H       0.49152874     -1.31177041      0.42612597
H       1.16387202      1.57385257     -0.39395467
H       4.36580462      0.47800169      0.12080561
H      -1.37898921      1.04441895     -0.38564862
H      -1.92707760     -1.86939455      0.44956629
H      -3.59759408      0.28151982     -0.28771928
