15
b3lypvtz=-191213.76888129
N       3.06528387     -0.55191975     -0.16176178
C       2.12140318      0.06737417      0.06129504
C       0.90343033      0.82658014      0.32470494
C      -0.32186694      0.23017636     -0.37603584
C      -0.90565172     -1.10601563      0.14009555
C      -2.28495319     -0.41389246      0.05984973
N      -1.58968414      0.89728307     -0.00909899
H       1.05413016      1.85708808     -0.00674246
H       0.72180164      0.85943705      1.40057027
H      -0.13699167      0.19305593     -1.45545267
H      -0.60135519     -1.32562813      1.16227121
H      -0.74787829     -1.98492955     -0.47846407
H      -2.82953951     -0.67889186     -0.85168067
H      -2.95396337     -0.52127148      0.91399386
H      -1.95337314      1.55497804     -0.68756712
