15
b3lypvtz=-191223.74022018
C       2.97679894      0.54068407      0.33969502
C       2.28137079     -0.41558262     -0.27708535
C       0.83324713     -0.60279728     -0.21236713
C      -0.07471470      0.36971870     -0.05668976
C      -1.53561884      0.17715056      0.01077876
N      -2.39193899      1.11434591     -0.16461669
N      -1.98527436     -1.11646638      0.22086041
H       4.04982002      0.61352872      0.22716662
H       2.50206097      1.26719849      0.98722106
H       2.82156605     -1.15080936     -0.86562036
H       0.48215366     -1.62036557     -0.35091703
H       0.24860429      1.40368751     -0.01592906
H      -1.92493479      1.98780078     -0.39263651
H      -2.98138522     -1.16452102      0.37325950
H      -1.44854096     -1.67921653      0.86084252
