13
b3lypvtz=-216151.01019545
C      -3.45249447     -0.25370880      0.00048088
C      -2.01705268     -0.03987985     -0.00065124
C      -0.82940102      0.16060256      0.00068875
C       0.59574242      0.36428340      0.00232027
O       1.11098201      1.46644495      0.00799436
C       1.46435379     -0.88131799     -0.00323121
O       2.82512748     -0.55803140     -0.00070998
H      -3.88062520      0.04737990      0.95882833
H      -3.93043814      0.34215480     -0.77935230
H      -3.69844468     -1.30308272     -0.16816216
H       1.19757072     -1.48512308      0.87412511
H       1.19879110     -1.47639386     -0.88690998
H       2.86862067      0.41136610      0.00418318
