16
b3lypvtz=-204439.83313195
C       2.70477000      0.48841660      0.51323036
N       1.30318895      0.79917334      0.32757029
C       0.48658256     -0.12794597      0.06252134
C      -0.94164366      0.18640916     -0.12804201
O      -1.25006647      1.53784824      0.01162258
C      -1.97831779     -0.81479084      0.32945038
C      -1.73549857     -0.60771187     -1.14074315
H       2.93282402     -0.57889397      0.39883098
H       3.29912830      1.05464621     -0.20654315
H       3.01816073      0.81088706      1.50810521
H       0.78559326     -1.17908134     -0.03684573
H      -0.40211902      1.96782182      0.21227674
H      -1.64977964     -1.73752695      0.78861623
H      -2.86979785     -0.37894411      0.75721788
H      -2.46499371     -0.03400141     -1.69422632
H      -1.23783112     -1.38650599     -1.70294162
