15
b3lypvtz=-214493.93347796
C      -1.96659143      0.98506462     -0.59948120
O      -1.69536325      0.32378131      0.63374003
C      -0.58919999     -0.50276356      0.63365757
C      -0.73411196     -1.80043661      0.89777059
C       0.69345724      0.18838194      0.44249178
N       1.75499393     -0.42567064      0.09076909
N       2.90131135      0.29513005     -0.06267911
H      -2.22029272      0.26122666     -1.37932028
H      -1.11836463      1.58600306     -0.93954554
H      -2.81751666      1.63860242     -0.42008485
H       0.13292308     -2.43378979      1.00367178
H      -1.71894174     -2.22518072      1.02430047
H       0.69298319      1.26564450      0.64067165
H       3.71228618     -0.29655026      0.02210102
H       2.97242742      1.14055702      0.49703554
