20
b3lypvtz=-182673.2491536
C      -3.51157551     -0.26141643     -0.09379887
C      -2.30129817      0.68311479     -0.11754105
C      -1.05792442      0.08075515      0.46839539
C       0.05319755     -0.17666242     -0.22855838
N       1.18971013     -0.83874124      0.21829942
C       2.49007276     -0.48594292     -0.33660871
C       3.05233939      0.86060193      0.12576653
H      -4.40350232      0.22717981     -0.49229188
H      -3.73645711     -0.58379352      0.92526655
H      -3.31784005     -1.15632758     -0.68746538
H      -2.56451111      1.59618641      0.42891493
H      -2.10335578      0.99210324     -1.14780143
H      -1.09482388     -0.18772894      1.52213953
H       0.10266910      0.09522126     -1.27985679
H       1.20363490     -1.00096845      1.21517823
H       2.39453271     -0.49270291     -1.42516826
H       3.18941879     -1.28605572     -0.08447837
H       3.19240857      0.87419905      1.20889533
H       2.37646056      1.67657814     -0.13428510
H       4.02070289      1.05726135     -0.33970669
