18
b3lypvtz=-205207.11553443
C      -1.96884455      0.85734581      0.04670788
C      -1.33075000     -0.49212254      0.38803231
N      -1.71369055     -1.58463195     -0.52445849
C       0.17362295     -0.47611526      0.47758060
C       0.96589580      0.58115433      0.35073379
C       2.45932417      0.55460362      0.44888080
O       2.92709268     -0.76509989      0.68433003
H      -1.73106324      1.62210957      0.78928726
H      -3.05519824      0.75735557      0.01150234
H      -1.63330457      1.21331215     -0.93016347
H      -1.70105944     -0.79499721      1.37568442
H      -2.72342600     -1.66284082     -0.57340276
H      -1.38767576     -1.37883591     -1.46309237
H       0.62088877     -1.44685741      0.65375933
H       0.55398857      1.56802801      0.16627675
H       2.77465764      1.23121664      1.25678967
H       2.88391993      0.95977964     -0.48129826
H       3.88562182     -0.74350432      0.74185017
