19
b3lypvtz=-171777.78104903
C       2.12286518     -0.80153241     -0.46313161
C       1.27083810     -0.04716300      0.54456925
C       0.77962844      1.40426453      0.06894289
C      -0.50573077      0.66683638     -0.43133006
C      -2.03862530      0.36613855     -0.31397308
C      -1.56412585     -1.09579623      0.11166166
C      -0.27581808     -0.36082192      0.61917539
H       1.66252165     -0.84224649     -1.45163883
H       2.29033752     -1.82875043     -0.13309381
H       3.10007945     -0.32664616     -0.57564672
H       1.76794208     -0.05480163      1.51591983
H       0.61219016      2.05617485      0.92567597
H       1.39342043      1.92055457     -0.67053579
H      -0.22283285      0.22809109     -1.39244684
H      -2.65615154      0.46175571     -1.20717933
H      -2.52037452      0.87061003      0.52345765
H      -1.39794534     -1.71661452     -0.76851547
H      -2.17183612     -1.63803085      0.83608835
H      -0.58312762      0.08197793      1.57312855
