15
b3lypvtz=-191243.84960214
C       2.56301394     -0.45421517      0.00013120
C       1.11618659     -0.08809302      0.00001120
C       0.02100895     -0.91232891     -0.00001608
N      -1.08553851     -0.08795728     -0.00025881
C      -2.47755374     -0.49817545      0.00017704
C      -0.60888123      1.18590983     -0.00028781
N       0.70283867      1.22493588     -0.00013117
H       3.06813360     -0.04786770     -0.87847695
H       3.06806558     -0.04751013      0.87861194
H       2.69624727     -1.53615397      0.00035585
H      -0.07387846     -1.98421716      0.00006107
H      -2.52753403     -1.58420108     -0.00289758
H      -2.99341914     -0.12650936     -0.88579721
H      -2.99164852     -0.13156112      0.88931007
H      -1.26499296      2.04226564     -0.00053276
