16
b3lypvtz=-256068.83085619
C       2.26236227      0.60646778     -0.50617827
C       1.10153698     -0.37418123     -0.37107519
O       1.25265841     -1.21251372      0.77101440
C      -0.25533411      0.33983921     -0.32404012
O      -0.30080720      1.06047214      0.90614746
C      -1.41017030     -0.63873985     -0.40242555
F      -2.60780847      0.07432151     -0.22882207
H       2.19800558      1.16359671     -1.44328242
H       2.25872211      1.32172193      0.31687089
H       3.20551796      0.06161209     -0.49136242
H       1.10194447     -1.05123082     -1.22943684
H       1.06074711     -0.66374230      1.54200600
H      -0.32643122      1.03597785     -1.16936114
H      -1.20944912      1.34837799      1.04609927
H      -1.45331841     -1.12790468     -1.37691384
H      -1.35021305     -1.38326564      0.39000985
