16
b3lypvtz=-232746.41849393
C      -0.88874763      1.73310852     -0.10853823
C      -0.29369210      0.43674098      0.45108954
C      -1.34772629     -0.64845832      0.61971612
F      -1.94175879     -0.94639583     -0.61289993
C       0.84876497     -0.06005789     -0.40667965
C       2.24093023      0.29309478     -0.12532088
O       1.73682148     -1.00732460      0.20066824
H      -1.32372629      1.56858822     -1.09450625
H      -1.67740422      2.11146433      0.54386375
H      -0.12556139      2.50704160     -0.19766239
H       0.10769885      0.62346889      1.45304218
H      -2.14407636     -0.32203652      1.29212621
H      -0.90325948     -1.56956807      0.99919297
H       0.58404963     -0.30508975     -1.43192709
H       2.46758310      0.92637399      0.72745776
H       2.96898730      0.31907866     -0.92952136
