15
b3lypvtz=-216924.18476128
C       2.39396169      0.04232248      0.07592754
C       0.95970794     -0.13150044     -0.38562460
C       0.20046676     -1.45193905     -0.03400893
C      -1.02317370     -0.56607681      0.18661655
O      -2.19753878     -0.68767978     -0.02942413
C      -0.15964352      0.67741420      0.36126745
O      -0.62960726      1.90028636     -0.12504914
H       3.06315586     -0.65216688     -0.43533959
H       2.74722331      1.05529155     -0.12466421
H       2.48314205     -0.13813826      1.14980969
H       0.86505623      0.06532194     -1.45500712
H       0.10472697     -2.22279890     -0.79563607
H       0.55891045     -1.90053387      0.89472517
H       0.13808311      0.79374472      1.41039230
H      -1.46572911      1.73780274     -0.57887491
