14
b3lypvtz=-226993.33432187
O       2.31798512     -0.27207727     -0.06373598
C       0.95257905     -0.03735312      0.04424358
C       0.59187747      1.16492334     -0.80814094
N      -0.84929073      1.33710477     -0.99468506
C      -1.59661386      0.34360203     -0.76530039
C      -1.14471845     -1.02904993     -0.34346936
O       0.25836981     -1.19005577     -0.42804453
H       2.53874030     -1.04678405      0.46544926
H       0.65568580      0.13251941      1.09285967
H       0.98743545      2.07781344     -0.35980945
H       1.06462221      1.05620258     -1.78737402
H      -2.67410777      0.47613884     -0.88064740
H      -1.51090353     -1.23218365      0.67615143
H      -1.59166088     -1.78070062     -0.99759680
