20
b3lypvtz=-182656.93557645
C       3.35666773      0.35523907     -0.02184082
N       2.14857840     -0.40367308     -0.30947266
C       0.94142236      0.18314639      0.25826892
C      -0.28960194     -0.66404218     -0.05524823
C      -1.57015958     -0.07954201      0.49447869
C      -2.32814671      0.96352433     -0.28387361
C      -2.89622884     -0.42371716     -0.12584125
H       3.52768804      0.54034892      1.05111840
H       4.22545936     -0.17020071     -0.41955054
H       3.30393477      1.32731833     -0.51710445
H       2.25366659     -1.35260214      0.03008153
H       1.01741807      0.33049417      1.35040181
H       0.81597542      1.17973006     -0.17550794
H      -0.14538937     -1.67144539      0.35303142
H      -0.36752286     -0.77946534     -1.13958093
H      -1.58014355      0.04542171      1.57170996
H      -2.79832420      1.77412542      0.25552690
H      -1.94388355      1.24127955     -1.25667138
H      -2.89288889     -1.07093039     -0.99295064
H      -3.75105228     -0.55553256      0.52306379
