18
b3lypvtz=-202794.32855512
C      -3.26626456     -0.79122706     -0.14177261
C      -2.16784122      0.11400759      0.31196493
N      -1.06957126      0.19329890     -0.32576766
N      -0.12438738      1.09416344      0.07818340
C       1.23567499      0.77110073     -0.32015913
C       1.84790703     -0.43988979      0.38736503
N       3.21833921     -0.65232892     -0.08757114
H      -3.53540783     -1.50922470      0.63824587
H      -4.17280777     -0.22546722     -0.37662519
H      -2.95684329     -1.33780569     -1.03098316
H      -2.34362849      0.72134633      1.20854921
H      -0.21214584      1.38861542      1.04857571
H       1.22183610      0.59924161     -1.39837980
H       1.85920059      1.64787321     -0.13822228
H       1.18282551     -1.30178482      0.24727495
H       1.89201033     -0.23892688      1.46182466
H       3.67448242     -1.37820757      0.45146184
H       3.21008343     -0.97241157     -1.04969365
