17
b3lypvtz=-191982.17239847
C       2.70876057     -0.85392365     -0.21599102
C       1.44536589     -0.89023647      0.18545501
C       0.50735902      0.28223919      0.36720261
C       1.07692060      1.62097855     -0.09787495
N      -0.73269297      0.00197151     -0.35308873
C      -1.80147721     -0.09582627      0.31846658
N      -3.03467483     -0.27583000     -0.25842493
H       3.29229707     -1.76113691     -0.30357637
H       3.20981658      0.06900858     -0.47670108
H       0.99554200     -1.85053418      0.42090000
H       0.30381093      0.35797088      1.45069364
H       1.28343307      1.59650224     -1.16815643
H       1.99734074      1.86667218      0.43357929
H       0.35364581      2.41482267      0.08853679
H      -1.83847187      0.00042042      1.41146728
H      -3.75568948     -0.69179545      0.30501892
H      -3.02748393     -0.55173029     -1.22803061
