14
b3lypvtz=-203669.05763524
C      -2.34949003      0.65537587     -0.07731973
C      -1.36156414     -0.21189470     -0.80998122
N      -1.72192476     -0.84372863     -1.85933282
C      -0.03377353     -0.27467048     -0.25926391
C       1.07587385     -0.33142730      0.20870252
C       2.42468152     -0.37985977      0.76739180
O       2.57356000      0.34885095      1.97944012
H      -2.46165958      0.31711605      0.95476414
H      -1.99709495      1.68834206     -0.04049438
H      -3.31095260      0.61491710     -0.58360394
H      -0.94604997     -1.38565571     -2.24030952
H       2.68373503     -1.41282548      1.00675531
H       3.13805170     -0.03943379      0.00643031
H       2.28660747      1.25489382      1.82650100
