14
b3lypvtz=-229599.1569578
C       2.63873707     -0.45811918     -0.06067022
C       1.34281349     -0.73626840      0.09312369
C       0.26426618      0.24398713      0.03189316
N       0.60600312      1.59773435     -0.07477553
C      -1.01849407     -0.15766073      0.01575732
N      -1.49380236     -1.45956311     -0.03192729
F      -1.98605900      0.83331091     -0.00653013
H       2.99528246      0.53676291     -0.29290628
H       3.38506962     -1.23634695      0.01641801
H       1.02326511     -1.75139044      0.28264502
H       1.37445446      1.86072391      0.52513513
H      -0.18070688      2.21628228      0.05044212
H      -2.16832013     -1.65662655      0.69804508
H      -1.90016606     -1.70834113     -0.92718409
