17
b3lypvtz=-217687.33919936
C       2.59006171     -0.48305255      0.25446334
C       1.37196386     -0.73302517     -0.21047594
C       0.26266191      0.27013950     -0.41186558
C       0.63461878      1.70517369     -0.04282191
C      -1.00629006     -0.18006457      0.33575267
O      -1.33599616     -1.47340245     -0.12650711
O      -2.09602820      0.70139767      0.16634164
H       2.91688458      0.50828913      0.53956108
H       3.31580504     -1.27860256      0.36184178
H       1.11021475     -1.75065936     -0.47503926
H      -0.00758454      0.23756228     -1.47696661
H       1.48010112      2.05091520     -0.63752725
H       0.91110381      1.78398355      1.01052052
H      -0.20429536      2.37631955     -0.21503743
H      -0.82380969     -0.18261842      1.41494935
H      -2.10509408     -1.77485357      0.36873346
H      -2.30558548      0.73062307     -0.77557274
