16
b3lypvtz=-204450.91112773
C      -3.34422992     -0.44474352      0.17305521
N      -2.14356467      0.00412676     -0.51143122
C      -0.93174983     -0.01448364      0.14882488
C       0.11063970      0.80023164     -0.05931701
C       1.44195644      0.61654348      0.61822778
C       2.46556824      0.01962517     -0.32531529
O       3.10966737     -0.97296475     -0.10275939
H      -4.15370282     -0.55425524     -0.54782961
H      -3.67766152      0.23253550      0.96971487
H      -3.16244475     -1.42424493      0.61703500
H      -2.28136322      0.80284860     -1.11203402
H      -0.84900229     -0.81583371      0.87743583
H       0.02215678      1.60934607     -0.77794711
H       1.36665485     -0.03591905      1.48886738
H       1.83387699      1.58432816      0.95633634
H       2.58083764      0.56277545     -1.28835761
