13
b3lypvtz=-234597.98092949
C      -2.45262365      0.47380586     -0.77689240
C      -1.04765507      0.21218758     -0.34511038
N      -0.54070133     -0.94487981     -0.50550595
N       0.72647360     -1.21725722     -0.07340901
N       1.60814150     -0.21463204      0.19728260
N       2.78461372     -0.59131562      0.19528278
O       3.64489679      0.43320365      0.52659509
H      -2.48766325      1.27849902     -1.51634645
H      -2.89341321     -0.42285054     -1.20821871
H      -3.06364970      0.79776887      0.07033440
H      -0.48626538      1.02894171      0.10438041
H       1.11915914     -2.05096178     -0.49097943
H       3.08868683      1.21749032      0.68931907
