16
b3lypvtz=-204439.97910948
C      -1.50458949      1.86329986      0.03152522
C      -0.64084788      0.96006233      0.47680380
C      -0.05138305     -0.14291333     -0.36503775
C       1.48503479     -0.08143911     -0.37604294
O       1.95374261     -0.23244889      0.96079222
C      -0.52358477     -1.50105105      0.12288043
N      -1.20078219     -2.35389444     -0.52236717
H      -1.89756245      2.63600015      0.67903850
H      -1.85242766      1.86499212     -0.99521398
H      -0.31322950      0.98831978      1.50982293
H      -0.38639529     -0.01977902     -1.39952844
H       1.79745795      0.88133748     -0.79547179
H       1.87244463     -0.88037131     -1.01853742
H       2.91431493     -0.21388891      0.95945208
H      -0.23129593     -1.75594812      1.14209251
H      -1.42089671     -2.01227754     -1.46176575
