19
b3lypvtz=-171811.08721877
C       1.49847001      0.72223617      0.29658239
C       1.49847012     -0.72223593     -0.29658190
C       0.22170309     -1.58886399      0.03812824
C      -0.81961161     -0.58372324      0.47078089
C      -2.13039391     -0.00000006      0.00000004
C      -0.81961161      0.58372326     -0.47078069
C       0.22170295      1.58886411     -0.03812793
H       2.39924257      1.23230088     -0.05006035
H       1.59579923      0.65016205      1.38217473
H       1.59579947     -0.65016180     -1.38217422
H       2.39924268     -1.23230054      0.05006097
H       0.43839754     -2.31690578      0.82323486
H      -0.08177834     -2.15233882     -0.84665538
H      -0.63439032     -0.25428689      1.48957514
H      -2.72164930      0.48077509      0.76949757
H      -2.72164917     -0.48077527     -0.76949756
H      -0.63439018      0.25428692     -1.48957491
H      -0.08177864      2.15233894      0.84665564
H       0.43839743      2.31690590     -0.82323453
