15
b3lypvtz=-214508.47033105
C      -3.45102537      0.07115500      0.00030289
C      -2.00543023      0.42596258      0.00016324
N      -1.10469097     -0.47284823      0.00000559
N       0.19532428      0.06254782      0.00007820
C       1.10778616     -0.82050937      0.00006864
C       2.54078428     -0.39744954      0.00013841
O       2.71641541      0.99693380      0.00020280
H      -3.94729003      0.49686733     -0.87606911
H      -3.94687075      0.49606996      0.87730565
H      -3.58373155     -1.00860514     -0.00013972
H      -1.72427793      1.48130394      0.00041297
H       0.87079399     -1.88500915      0.00004717
H       3.03027622     -0.84307912      0.87796254
H       3.03035121     -0.84300936     -0.87767961
H       1.82803529      1.38238948      0.00017334
