14
b3lypvtz=-180339.93575971
C      -1.13975849     -0.88402846      0.12450433
C      -1.06441345      0.61589236      0.28183580
C       0.41716489      1.10280796      0.28178847
C      -0.25278144      0.67478725     -0.97617464
N      -0.02704233     -0.82459870     -0.94096069
C       1.20722836     -0.98033481     -0.18906096
C       1.47934141      0.09227572      0.55164856
H      -0.91383869     -1.52979666      0.97527658
H      -2.06616132     -1.20131227     -0.35114437
H      -1.84641560      1.27763474      0.62473141
H       0.55293278      2.15344770      0.49337717
H      -0.35935581      1.21896679     -1.90491602
H       1.71268055     -1.93434788     -0.21151926
H       2.30041914      0.21860625      1.24061363
