16
b3lypvtz=-204434.60841905
C       2.57269610      0.03137190      0.03141896
O       1.28992567      0.54991037     -0.27532416
C       0.24041332     -0.11800462      0.36068100
C      -0.33569159     -1.45208456     -0.21383614
C      -1.77226100     -0.88978584      0.01593940
C      -1.14148170      0.48761081      0.13561659
N      -1.59092221      1.63771847     -0.09820161
H       3.30141313      0.65294963     -0.48496606
H       2.76836175      0.06881405      1.10979508
H       2.68338310     -1.00347654     -0.30998380
H       0.44152969     -0.22652817      1.43716088
H      -0.06913119     -2.37261112      0.30075635
H      -0.10565434     -1.53928388     -1.27485248
H      -2.50058287     -1.01166226     -0.78305425
H      -2.21538471     -1.23025045      0.95322706
H      -0.84183915      2.33091420     -0.03899584
