8
b3lypvtz=-222292.72871183
N       1.15979021     -0.06312280      0.09346547
C       2.31145219     -0.04447086      0.09569354
C       3.72421156      0.01068809      0.09845894
C       4.55995688      1.08982059      0.09721823
O       5.80673491      0.68804035      0.10084973
N       5.73423397     -0.80693407      0.10486913
N       4.53949381     -1.10858587      0.10325996
H       4.35662647      2.14736456      0.09388501
