13
b3lypvtz=-169502.56843102
C      -3.49686961     -0.60291020      0.05166233
C      -2.40594205     -0.12326911     -0.11050415
C      -1.13487080      0.46626832     -0.33772708
C      -0.04791630      0.22288549      0.39889147
C       1.28895995      0.87211139      0.15652925
C       2.36499292     -0.10051209     -0.02760914
C       3.23884419     -0.90910784     -0.17037905
H      -4.45535658     -1.03269166      0.20267260
H      -1.07112480      1.15815985     -1.17276745
H      -0.10317225     -0.47523515      1.22570984
H       1.23299903      1.52932162     -0.71482113
H       1.54168491      1.51042880      1.01149566
H       4.01296438     -1.62284442     -0.30284416
