14
b3lypvtz=-227000.00125862
O      -2.10836041     -0.95359554      0.97215183
C      -1.15879002      0.09236917      0.88570306
C      -0.37915527      0.07201007     -0.41542855
C       0.73290951      1.14188975     -0.51712407
N       1.99681837      0.38469011     -0.55887558
C       1.67556124     -0.83490180     -0.53735247
O       0.36461502     -1.18903985     -0.48665673
H      -1.63511748     -1.78683271      0.87218967
H      -1.71825387      1.02765067      0.95110810
H      -0.45242843      0.06525148      1.72586360
H      -1.06616006      0.07562953     -1.26107126
H       0.64493082      1.75665942     -1.41335165
H       0.73691529      1.81541704      0.34321060
H       2.36661530     -1.66719734     -0.56046657
