14
b3lypvtz=-224563.81725601
C      -3.18189026     -0.35432895     -0.00001214
C      -1.68241651     -0.54003843      0.00001637
O      -1.07951850      0.78246558      0.00002910
C       0.23831818      0.85334967      0.00004077
N       1.00206330     -0.17346424      0.00001817
N       2.34039495      0.25086554      0.00002165
N       3.11244180     -0.71587182     -0.00001662
H      -3.50922307      0.19195737      0.88468188
H      -3.66984797     -1.32989717     -0.00001865
H      -3.50918949      0.19195196     -0.88472195
H      -1.32885069     -1.07650812     -0.88034371
H      -1.32888556     -1.07650861      0.88039024
H       0.60587665      1.87728562      0.00002252
H       4.05363217     -0.30512240     -0.00003562
