12
b3lypvtz=-202890.16850378
C      -1.39784793      1.64377334     -0.36321168
N      -0.30462422      1.17999656      0.05923344
C       0.00901314     -0.19949601     -0.27544189
C      -0.41690496     -1.14350437      0.88089809
O      -1.33474387     -0.91433415      1.61170020
C       1.42459908     -0.37909816     -0.58280006
C       2.58400886     -0.57214075     -0.81641773
H      -2.09491289      1.08560579     -0.99840941
H      -1.67800829      2.65828195     -0.09206071
H      -0.58373801     -0.56194819     -1.13493532
H       0.18087275     -2.07183633      0.94764834
H       3.61238635     -0.72539968     -1.03040326
