12
b3lypvtz=-202901.18896949
C       2.97515894      0.28996206     -0.14864746
C       1.77388846      0.24027968     -0.16886982
C       0.35207532      0.25397958     -0.21473019
O      -0.22619000      1.43672011     -0.58571213
C      -0.39699718     -0.82652832      0.08640554
C      -1.85551047     -0.93192441      0.07442322
N      -2.73915755     -0.05865621     -0.21365915
H       4.03664175      0.31361137     -0.12482680
H       0.46148689      2.08842939     -0.75998590
H       0.15009129     -1.71497518      0.36873573
H      -2.22295192     -1.92002714      0.35951464
H      -2.30863553      0.82912906     -0.46674767
