18
b3lypvtz=-181874.92496187
C       1.72366996      0.92619569      0.34156773
C       0.56886165      0.01906594      0.01677069
C      -0.07979685     -1.06447904      0.93422815
C      -0.88828328     -1.10493764     -0.38990509
C       0.46796601     -1.02125097     -1.13770535
C      -0.88204991      0.44796768     -0.38646432
N      -1.68878695      1.13465491      0.60851600
H       1.49125743      1.56186227      1.19920224
H       2.61781100      0.34987078      0.58937527
H       1.96752551      1.57397701     -0.50411553
H      -0.60258554     -0.70180974      1.81396685
H       0.53713007     -1.93849322      1.14679747
H      -1.73033434     -1.75202946     -0.63172837
H       1.11721614     -1.89274934     -1.05747824
H       0.44922529     -0.62660161     -2.15552674
H      -0.94148240      0.89047022     -1.38977396
H      -2.67190528      1.07773103      0.36846332
H      -1.45543854      2.12055546      0.63380989
