16
b3lypvtz=-181110.24484745
C       1.81919553     -0.04935190     -0.21786176
C       0.48096474     -0.20008550     -0.96785075
C      -0.11963991      0.96091713     -0.11058747
C       0.74148668      0.09977848      0.87562815
C      -0.06791719     -1.05459194      0.22983477
N      -1.48380172     -0.80791166      0.47543919
C      -1.58354813      0.64556232      0.16629441
H       2.45607509     -0.93353794     -0.16320064
H       2.40682240      0.84084809     -0.44273367
H       0.32191627     -0.37242753     -2.03250922
H       0.17069472      1.98936031     -0.31737097
H       0.87710123      0.27539601      1.94183320
H       0.24774018     -2.08737180      0.36257339
H      -2.06294965     -1.35654572     -0.14818936
H      -2.22541487      0.84678514     -0.69584950
H      -1.97872537      1.20317651      1.01883608
