15
b3lypvtz=-214528.93953321
C      -2.86039684     -0.31871341     -0.00141816
O      -1.51387962     -0.76393559     -0.00129067
C      -0.52459543      0.18996310      0.00052461
N      -0.68317585      1.45333255      0.00151979
C       0.77922766     -0.46488975     -0.00292846
C       1.92156777      0.24204362     -0.00698620
N       3.19130542     -0.26510873      0.04910370
H      -3.08709211      0.27277649     -0.89275353
H      -3.08727990      0.27270470      0.88987142
H      -3.47411902     -1.21593015     -0.00152095
H      -1.65577484      1.73863150     -0.00016827
H       0.78111603     -1.54691010      0.00244260
H       1.85838281      1.32348463     -0.01386177
H       3.32433014     -1.24680637     -0.12830022
H       3.94746178      0.32368650     -0.25100988
