11
b3lypvtz=-292938.70957616
O       2.45868413     -0.73633110     -0.33720250
C       1.99069406      0.36656808     -0.33360909
O       0.69432054      0.66594036     -0.15040959
C      -0.17594305     -0.45191649      0.05579796
C      -1.58073099      0.06842835      0.24223433
F      -1.98760571      0.76931896     -0.85381390
F      -1.64931784      0.90499333      1.31627890
H       2.55253196      1.29659404     -0.47934748
H       0.12781048     -1.01109319      0.94133995
H      -0.14474115     -1.12113609     -0.80461216
H      -2.28560244     -0.75146624      0.40334359
