18
b3lypvtz=-181896.44477804
C      -2.93325550     -0.06023063     -0.02500479
C      -1.65268391     -0.21378437      0.32154776
N      -0.56438363     -0.29017344     -0.53380624
C       0.73852139      0.14136871     -0.08788137
C       0.91303098      1.63272977      0.12652824
C       1.89767320     -0.65378190     -0.62323639
C       1.47009476     -0.81699714      0.81515391
H      -3.70830298     -0.09399620      0.72477713
H      -3.23900616      0.07711249     -1.05489048
H      -1.38384910     -0.34354185      1.36428828
H      -0.76988369     -0.04848387     -1.49333545
H       0.20543655      2.00367087      0.87085852
H       1.92112864      1.87007699      0.46889844
H       0.73661173      2.18013100     -0.80302354
H       1.67187935     -1.46459803     -1.30094103
H       2.82084140     -0.12919662     -0.82779903
H       0.96646221     -1.73492993      1.08116580
H       2.10217274     -0.40225585      1.58816325
