17
b3lypvtz=-171053.31283985
C      -2.10832328     -0.43984749     -0.41847520
C      -0.73073157      0.12808890     -0.25913692
C      -0.44557404      1.48175053      0.29610001
C       0.13821262      0.27685698      1.01177548
C       1.31526743     -0.23527765      0.26054181
C       2.54002431     -0.60031969      0.60898452
C       0.50942670     -0.36365922     -1.03303015
H      -2.09423442     -1.53182189     -0.38559091
H      -2.77476993     -0.08805831      0.37111282
H      -2.54628322     -0.14241678     -1.37572060
H       0.20987435      2.17447133     -0.22044849
H      -1.26868038      1.95291048      0.81917750
H      -0.10603036      0.07103022      2.04531549
H       3.23255576     -1.01364637     -0.11338945
H       2.88702206     -0.50790497      1.63068956
H       0.42410054     -1.40455611     -1.34970122
H       0.81834345      0.24220005     -1.88830424
