16
b3lypvtz=-204409.75747511
C       1.77099670      0.81178752      0.44155017
C       1.87585465     -0.17786577     -0.66012707
N       0.61684395      0.51796441     -0.40478228
C      -0.43593051     -0.26940022      0.20110808
C      -1.47638588     -0.85407456     -0.77122921
O      -2.55875598     -0.20002436     -0.06779156
C      -1.62588100      0.52758500      0.76564115
H       1.76769256      0.42606149      1.45626644
H       2.19319254      1.80211211      0.33066710
H       1.94210002     -1.22499952     -0.38152613
H       2.37555249      0.08165202     -1.58439290
H      -0.04508633     -1.01362301      0.90809177
H      -1.36695703     -0.48163378     -1.79301970
H      -1.59420913     -1.93944360     -0.77930096
H      -1.59131012      1.59008176      0.51139535
H      -1.84771694      0.40382051      1.82744973
