20
b3lypvtz=-182667.19501122
C      -2.59550016      0.24269496     -0.07329499
C      -1.23878257     -0.42885383      0.01204804
C      -0.24914272      0.01622483      1.11345765
C       0.84470359      0.05375971      0.00923343
C       1.68646017      1.31939272     -0.07577038
C       1.72732407     -1.19504968      0.00434940
N      -0.25167191      0.01265167     -1.00792600
H      -2.48341010      1.32771208     -0.08557841
H      -3.22235718     -0.03556895      0.77777966
H      -3.11942722     -0.05193154     -0.98546139
H      -1.37300850     -1.51730483      0.02905716
H      -0.08490051     -0.67156094      1.94133110
H      -0.48168690      1.00528840      1.50824153
H       2.36003897      1.40074164      0.78119009
H       2.29555758      1.31929651     -0.98318088
H       1.04601041      2.20048886     -0.10213492
H       2.43002790     -1.18344535      0.84080901
H       1.13014330     -2.10582287      0.08058322
H       2.31145058     -1.24796825     -0.91822298
H      -0.10064277     -0.63159813     -1.77632034
