18
b3lypvtz=-202803.22377175
C      -1.98803812     -1.19571450     -0.57272218
C      -1.10602978     -0.81453158      0.62524142
C       0.20682220     -0.19837633      0.22309809
N       1.24879365     -0.95205927      0.25735900
N       2.44090725     -0.28616319     -0.17791678
N       0.23984375      1.10400888     -0.23660335
C      -0.78603922      2.08429594      0.08212906
H      -2.92082645     -1.64915320     -0.23411272
H      -1.47125411     -1.91599160     -1.20766468
H      -2.24039570     -0.33073960     -1.18774492
H      -0.86359044     -1.70830346      1.19744778
H      -1.65250672     -0.14000403      1.28910691
H       2.39043034     -0.13739573     -1.18615309
H       3.19180348     -0.94719949     -0.02823036
H       1.18674224      1.46304601     -0.22062026
H      -1.75843769      1.76454094     -0.28966287
H      -0.53702732      3.01841808     -0.42001381
H      -0.88038538      2.29022211      1.15471375
