16
b3lypvtz=-181128.17931922
C       2.32694279      0.00940403     -0.35106017
C       0.99862135      0.00756227     -0.29179267
N       0.07400190     -0.49859489     -1.25232157
C      -1.21123110     -0.33692417     -0.52646622
C      -1.07479884      1.13009497     -0.05922598
C       0.07780642      0.50355477      0.79549412
C      -0.87004017     -0.74067835      0.93534601
H       2.85769399     -0.40222946     -1.19908076
H       2.91235019      0.42749472      0.45454458
H       0.26880574     -1.44312243     -1.55664426
H      -2.07081948     -0.71145225     -1.07460707
H      -0.81202772      1.86949688     -0.81338447
H      -1.90969287      1.46318640      0.55333736
H       0.52493248      1.00697252      1.64670501
H      -1.68368419     -0.57004317      1.63850766
H      -0.40896050     -1.71472184      1.10044842
