12
b3lypvtz=-226232.22572155
C       1.21619431     -0.18445501     -0.03304814
N       1.61576649     -1.38438181     -0.08416719
C      -0.22297813      0.14110962     -0.33811709
C      -1.22005964     -0.92616460      0.12814674
O      -2.40785449     -0.79584155     -0.00411076
C      -0.66215959      1.52171561      0.14694026
O       0.09743758      2.36006233      0.55273024
H       1.84622273      0.66827772      0.22714932
H       2.60614387     -1.45540138      0.14549746
H      -0.35103086      0.17530368     -1.42958055
H      -0.76674853     -1.81439428      0.59750185
H      -1.75093373      1.69416967      0.09105786
