16
b3lypvtz=-225318.75321505495
C      -0.39373131     -1.01647404      0.40987793
C      -1.50240608     -0.39655003     -0.44650797
N      -1.68964768      1.03156855     -0.14339200
C       0.96181688     -0.41073908      0.24073980
N       1.17830437      0.85745652      0.00824387
N       2.31343739      1.55629485     -0.10572817
O       2.02412726     -1.23963275      0.42351540
H      -0.70051362     -0.99625761      1.46550890
H      -0.30669079     -2.07318456      0.14991197
H      -1.22652147     -0.47399664     -1.49947322
H      -2.41594816     -0.98713753     -0.30583714
H      -2.08784366      1.15375744      0.78129109
H      -2.33064640      1.45907982     -0.80023669
H       0.32293694      1.39307825     -0.15499668
H       3.06119469      0.98165145      0.29001253
H       2.79213164     -0.83891465     -0.01652234
