13
b3lypvtz=-237096.87737552
N      -3.04501782      0.27584148     -0.11326509
C      -1.87403270     -0.41506308     -0.14497968
N      -0.78539433      0.03617736      0.33076962
C       0.39226704     -0.80738328      0.30373087
C       1.64724529      0.00363121     -0.02713633
O       2.70969899     -0.50286957     -0.26139045
O       1.46117326      1.33298085     -0.00816437
H      -3.79715348     -0.00596340     -0.71508669
H      -3.01707959      1.24253729      0.16676044
H      -1.96222393     -1.41384430     -0.58427286
H       0.56973867     -1.24417181      1.29223738
H       0.33381815     -1.63753857     -0.40838358
H       0.51288447      1.46896682      0.19148774
