13
b3lypvtz=-192879.00891972
C      -1.29387287     -0.36399405      0.14771666
C      -0.85928149      1.06075209      0.06351735
C       0.41876012      1.41944622     -0.08225434
C       1.50458390      0.42328315     -0.17146520
O       2.67360799      0.75212007     -0.30451978
C       1.09647520     -0.99314323     -0.09069554
C      -0.18112066     -1.35342581      0.05496798
H      -1.85163349     -0.52407057      1.08082501
H      -2.03520414     -0.56945412     -0.63684575
H      -1.63550969      1.81540492      0.12615365
H       0.71991957      2.45737874     -0.14201535
H       1.89399960     -1.72201613     -0.15654934
H      -0.45072404     -2.40228129      0.11116465
