18
b3lypvtz=-181906.58579549
C       1.83170858      1.05739173     -0.35060818
C       0.59112640      0.51577113      0.36081575
C      -0.60753236      1.42630381      0.30182622
C      -1.69790176      0.75990753     -0.05117854
C      -1.38144322     -0.69185801     -0.26188292
N       0.08381526     -0.71840733     -0.26377599
C       0.67504196     -1.95143867      0.20575349
H       2.64736496      0.33308320     -0.31882629
H       1.60372605      1.26964511     -1.39546331
H       2.18382304      1.97384298      0.12834944
H       0.85720914      0.34172780      1.42099804
H      -0.55116856      2.47942871      0.53979035
H      -2.69340113      1.16833966     -0.15275522
H      -1.81376189     -1.30184096      0.55288841
H      -1.78656752     -1.09111540     -1.19835675
H       1.76054347     -1.91189569      0.10694465
H       0.43711360     -2.17291968      1.26142912
H       0.32319498     -2.78889591     -0.39925928
