18
b3lypvtz=-181902.10069663
C      -2.41510472     -0.77640175     -0.18628495
C      -1.37813917     -0.02455570     -0.53134220
C      -0.27675139      0.41490014      0.40337517
N      -0.19323456      1.87855140      0.35896411
C       1.04335813     -0.23142123     -0.00197148
C       1.98302417      0.43131903     -0.67091104
C       1.19954190     -1.67167127      0.39950418
H      -3.17171567     -1.06345023     -0.90485317
H      -2.54493664     -1.13441351      0.82867449
H      -1.26830247      0.33060035     -1.55124562
H      -0.52342072      0.03466839      1.40657377
H       0.52437270      2.20861417      0.99432003
H      -1.07387260      2.28344434      0.65260807
H       2.90945090     -0.05149954     -0.95545293
H       1.84709357      1.46434417     -0.95747625
H       2.13773895     -2.08589913      0.03286988
H       1.18085145     -1.77872960      1.48833711
H       0.37944614     -2.28047703      0.01081483
