11
b3lypvtz=-213032.50647096
C      -1.18400779      0.49807513      0.04794382
C      -1.22197151     -0.85134879     -0.07341261
N      -0.07305526     -1.59420824     -0.14323038
C       1.07069965     -0.98866148     -0.09177163
C       1.24766546      0.45994026      0.03797964
O       2.30836616      1.05688476      0.08871749
N       0.02189507      1.12904650      0.10158502
H      -2.06748142      1.11727785      0.10599563
H      -2.15985605     -1.38385340     -0.11883829
H       1.98032820     -1.57676568     -0.14697807
H       0.07741751      2.13361309      0.19200938
