14
b3lypvtz=-203688.96992902
C      -3.05992264     -0.14199627     -0.39274414
C      -1.96503610      0.18132691      0.28138350
C      -0.71420301     -0.64017595      0.30370225
C       0.56234297      0.14405333      0.08055862
O       0.60879185      1.34971527      0.00575195
C       1.84310093     -0.67166871     -0.02679086
N       2.97819875     -0.15038749     -0.21221148
H      -3.94222690      0.48333590     -0.36781840
H      -3.11716396     -1.04121312     -0.99545477
H      -1.93826426      1.09691072      0.86055378
H      -0.59219664     -1.13666339      1.27813878
H      -0.75610047     -1.45549611     -0.42546092
H       1.76060565     -1.75592243      0.05917212
H       2.86867981      0.86935435     -0.26933144
