15
b3lypvtz=-216918.51547674
C       2.69366336     -0.07305751      0.15518536
C       1.36654829     -0.72229450     -0.06727477
C       0.14377878     -0.16602639     -0.13291927
C      -0.09345355      1.28053352      0.04362599
O      -1.16601647      1.82676365     -0.09648662
O      -0.90686983     -0.96913728     -0.48407678
C      -2.05486399     -0.97966032      0.37416776
H       3.18920872     -0.52129365      1.02062729
H       2.64489500      1.00055487      0.31389468
H       3.34855426     -0.25676739     -0.70148407
H       1.39188647     -1.79457608     -0.23519837
H       0.79793090      1.86845355      0.32314471
H      -1.76403845     -1.21392979      1.40233606
H      -2.58235400     -0.02922455      0.34474186
H      -2.69575449     -1.77336813     -0.00282281
