11
b3lypvtz=-236310.18980104
C      -0.53360913     -1.13518406      0.18643704
C      -0.69110193      0.09199797     -0.30450873
O       0.54463883      0.70691635     -0.37241565
C       1.47799823     -0.20528771      0.09551484
N       2.71390046     -0.03873320      0.21542933
O       0.83067171     -1.34953522      0.41864830
N      -1.74077491      0.81886073     -0.82308981
H      -1.20575811     -1.94102214      0.40357733
H       2.99292719      0.88597535     -0.09266777
H      -1.74960957      1.78363804     -0.51949465
H      -2.63928278      0.38237388     -0.68302602
