11
b3lypvtz=-264642.00254362
O       2.72606052      0.01157813      0.03168208
C       1.55403217     -0.25136822      0.11226198
N       0.57450692      0.71404898     -0.10476185
C      -0.80539203      0.65949998      0.00810400
O      -1.47028889      1.66875484     -0.05538245
C      -1.50425056     -0.67093248      0.25523693
F      -0.85944809     -1.76355989     -0.30848028
H       1.16560138     -1.24314946      0.35994780
H       0.93146062      1.64432624     -0.29402739
H      -2.49920265     -0.59065324     -0.17656727
H      -1.58897139     -0.83616089      1.33245043
