19
b3lypvtz=-218448.70406199
C       3.20040591      0.33794702     -0.13531415
C       2.03629376     -0.55103269      0.25066568
O       0.83259020      0.04319258     -0.21093494
C      -0.33316167     -0.69933830      0.10646775
C      -1.53547429      0.11766564     -0.34113348
C      -2.84949800     -0.55991973      0.00185110
O      -1.52414707      1.39257499      0.29421460
H       3.24776334      0.46106401     -1.21752096
H       4.13973997     -0.10128519      0.20371550
H       3.09931291      1.32437790      0.31828865
H       2.14863512     -1.54934497     -0.19322221
H       1.99130754     -0.68126168      1.34018140
H      -0.31873429     -1.67334241     -0.40117950
H      -0.38764877     -0.87351467      1.18972575
H      -1.46440933      0.24907219     -1.42948767
H      -3.68315653      0.06232085     -0.32182065
H      -2.93126353     -1.52897924     -0.49285793
H      -2.93410360     -0.70633509      1.07986661
H      -0.62957466      1.73987977      0.19825845
