15
b3lypvtz=-170250.71389042
C       1.04302370     -0.22097273      0.16225059
C       0.46734143      0.74210884      0.86128504
C       0.48134929      1.34057178      2.24007111
C       0.27800139      2.78880502      1.64831040
C      -0.92681761      3.08028313      2.55730970
C      -1.07398440      1.59757659      2.17959378
C      -0.55484895      1.83364596      0.70867656
H       0.78718620     -0.39236269     -0.87517680
H       1.78822716     -0.86842695      0.60560826
H       1.05932531      1.07815016      3.12263487
H       1.07992086      3.44606098      1.31731368
H      -1.68271444      3.76426403      2.16761636
H      -0.71094541      3.30204314      3.60386723
H      -1.83752484      0.87594062      2.46385106
H      -1.15403970      2.13161212     -0.14811183
