16
b3lypvtz=-204459.25612522
C      -2.20780686     -0.60238870     -0.59321686
C      -1.21075551     -0.14272187      0.48014434
C       0.06754360     -0.94994655      0.50839092
C       1.06791832     -0.19473188      0.03759505
N       2.40972409     -0.44796775     -0.16175165
O       0.71545932      1.08967775     -0.26940269
C      -0.63617623      1.26982401      0.22515809
H      -3.10719243      0.01961926     -0.59507629
H      -1.75476234     -0.55548725     -1.58564651
H      -2.51663014     -1.63457589     -0.41725743
H      -1.72285822     -0.15081877      1.44697139
H       0.13841931     -1.98901713      0.78388298
H       2.63276867     -1.41583602     -0.32783289
H       2.83816000      0.16972909     -0.83421736
H      -0.57315863      1.85229307      1.14671943
H      -1.18592596      1.83978662     -0.52286953
