12
b3lypvtz=-223844.86287217
N       0.86865748      0.08689133      0.00162377
C       0.25622565     -0.77903537     -0.71101298
N      -1.13312413     -0.89500560     -0.76405232
C      -1.48845930     -2.04060411     -1.47984626
O      -2.78205010     -2.43299929     -1.58886066
C      -0.37558015     -2.59448920     -1.97988113
N       0.70449737     -1.78337288     -1.56599333
H       1.87551864      0.01165577     -0.09877363
H      -1.70233928     -0.46860987     -0.05338518
H      -3.29809940     -1.74389246     -2.02605120
H      -0.25933447     -3.42804470     -2.64579511
H       1.65158769     -2.11269361     -1.51467198
