16
b3lypvtz=-227741.79789093
C      -2.84039381     -0.38290956     -0.03962806
N      -1.51574170      0.02267984     -0.48567691
C      -0.54485663      0.08817394      0.60801460
C       0.79956312      0.53823780      0.12849693
O       0.87831442      1.89812527     -0.04060920
C       1.81973307     -0.28174356     -0.12909113
O       1.67491264     -1.65801903     -0.07438265
H      -2.85734554     -1.33045229      0.52338351
H      -3.26181103      0.39085466      0.60622574
H      -3.49961710     -0.48700848     -0.90178611
H      -1.17464013     -0.62701663     -1.18397415
H      -0.90609631      0.82281804      1.33327976
H      -0.42944659     -0.87022880      1.13190601
H       1.73113477      2.12912518     -0.42504223
H       2.78132467      0.09082318     -0.47361658
H       2.42693415     -2.03699657      0.39107146
