15
b3lypvtz=-216838.33626947
O       1.22497809     -0.30229154     -0.10816122
C       0.52177925      0.87605523     -0.41829193
C      -0.84833405      0.90340825      0.40723463
C       0.01859332      1.64753067      1.46860725
O       0.16691797      2.88887491      2.27006993
C       1.46736175      3.04203568      1.56509580
C       0.85258615      2.20553464      0.39874269
H       2.08706610     -0.26692616     -0.53419295
H       0.43330555      1.01606988     -1.49785952
H      -1.58935971      1.52157768     -0.09366700
H      -1.26263715     -0.06869391      0.66878483
H       0.54188162      0.87095853      2.03270298
H       2.26339952      2.55307991      2.13037655
H       1.69722595      4.08876494      1.37547164
H       0.23123563      2.93822129     -0.12391367
