15
b3lypvtz=-193606.24920221
C      -3.16879963      0.09184050      0.27921699
C      -2.06602428     -0.37105246      0.12330813
C      -0.75068316     -0.85492547     -0.06651238
C       0.28810397     -0.01825789     -0.27141686
O       0.14556770      1.32698385     -0.30992355
C       1.70446951     -0.45294205     -0.47183475
C       2.64632832      0.02807672      0.64125045
H      -4.14868305      0.47422774      0.41937276
H      -0.57492000     -1.92089947     -0.04731863
H      -0.78728165      1.54598071     -0.16390643
H       2.04865271     -0.05522126     -1.43126174
H       1.72855219     -1.54009990     -0.54495755
H       2.63718458      1.11453871      0.71642516
H       2.34918508     -0.38204558      1.60738518
H       3.66878070     -0.29124515      0.43717523
