13
b3lypvtz=-242055.73224422
C       2.59623500      0.66826828      0.45066152
C       1.51204779     -0.08739917      0.46176670
O       0.44540883      0.17572561     -0.37988455
C      -0.53340091     -0.76007499     -0.44764027
C      -1.79515973     -0.55765700     -0.09188045
N      -2.26890040      0.58959960      0.56016560
F      -0.11536906     -1.93962967     -0.95890485
H       3.40193638      0.45545803      1.13581244
H       2.69833105      1.50126513     -0.23021584
H       1.37095232     -0.93788130      1.11711941
H      -2.50862156     -1.35064454     -0.26010077
H      -1.62213508      1.36472998      0.51507367
H      -3.18132464      0.87824004      0.23826947
