15
b3lypvtz=-214538.03391507
N      -3.02575902     -0.74470532      0.14170548
C      -2.27093906      0.25758693     -0.02155898
C      -0.86728884      0.28136788     -0.56300128
C       0.14635573      0.74559990      0.49840232
N       1.50172513      0.86037843     -0.01751312
C       2.33373335     -0.20708797     -0.12258254
O       2.05371167     -1.33944314      0.21068917
H      -2.55809265     -1.60422541     -0.15804421
H      -2.67667339      1.23100473      0.27202605
H      -0.82698730      0.97108624     -1.41265957
H      -0.58316662     -0.70944895     -0.92037054
H       0.16293889      0.02899891      1.31854339
H      -0.14451987      1.71447390      0.90636293
H       1.82349357      1.74698786     -0.36722476
H       3.31689640      0.06715800     -0.54434136
