14
b3lypvtz=-203700.0996755
N      -2.34384516     -0.14386987     -0.06818499
C      -1.08164370     -0.02542979     -0.01025706
C      -0.33154438      1.23430466      0.13947951
C       0.99265972      1.29301328     -0.00270950
C       1.78737977      0.04268280     -0.22880758
C       1.00357184     -1.14813450      0.30036866
O      -0.34866590     -1.16189400     -0.17520461
H      -2.78420292      0.76884846      0.01110674
H      -0.91994686      2.12567460      0.31406623
H       1.50874005      2.24489362      0.03761276
H       2.00342820     -0.07854570     -1.29602683
H       2.75322077      0.09813745      0.27932153
H       1.42882400     -2.09497899     -0.02525391
H       0.99530556     -1.13102001      1.39505006
