15
b3lypvtz=-214494.57446006
N      -2.92197765      1.54849361      0.23073847
C      -2.29068653      0.46497904      0.06315771
C      -0.93104120      0.09100197      0.58881404
C       0.05132581     -0.26862263     -0.54488640
C       1.36239470     -0.76051333     -0.02228789
N       2.42577823     -0.11235616     -0.25992064
O       3.54677431     -0.72721762      0.32230215
H      -2.38086450      2.20044748      0.80468011
H      -2.78197210     -0.30348050     -0.54192220
H      -1.04281908     -0.77508673      1.25106292
H      -0.52591236      0.90834726      1.18935858
H       0.22679503      0.59887601     -1.18118907
H      -0.39779464     -1.04800077     -1.16951113
H       1.39302971     -1.67291002      0.57497348
H       4.26707027     -0.14405759      0.06242985
