16
b3lypvtz=-204439.00253531
C      -2.13050617     -1.00754290     -0.22022817
C      -0.92263153     -0.12538966     -0.07009868
C       0.24316039     -0.61028024      0.39582876
C       1.51344550      0.12522136      0.58878271
C       2.44614470      0.43358194     -0.51184736
O       1.63682012      1.46357052      0.06607186
N      -1.15859757      1.20657692     -0.37700799
H      -2.95695463     -0.63046314      0.38734675
H      -1.91598326     -2.03077833      0.07871785
H      -2.47319562     -1.02161276     -1.25965200
H       0.27238824     -1.64820698      0.70188230
H       1.96842687      0.01921189      1.57243042
H       2.17346236      0.14400993     -1.52099732
H       3.50977991      0.52831556     -0.31596264
H      -0.33332371      1.77782170     -0.48381261
H      -1.87243565      1.37596419     -1.06656895
