12
b3lypvtz=-221395.22259404
N      -2.45640689      1.58697766     -1.06142133
C      -2.04788468      0.52646813     -0.88250540
C      -1.50951979     -0.81908029     -0.60589234
N      -0.42001046     -0.85244042      0.35142916
N       0.74984775     -0.31356393     -0.16132805
N       1.43427560      0.24022267      0.70920250
N       2.66826493      0.62559292      0.26299173
H      -1.15537050     -1.25417812     -1.54029560
H      -2.31875342     -1.44732806     -0.23275665
H      -0.64745347     -0.45985610      1.26270925
H       2.98090409      1.43478660      0.77697022
H       2.72210685      0.73229894     -0.74630350
