15
b3lypvtz=-191195.00370620468
C       2.70628123      0.68712394     -0.04947110
N       1.67110668     -0.16032716     -0.08959530
C       0.35561225      0.01085013      0.06687615
C      -0.68502059     -1.08681495     -0.01627692
C      -1.98791084     -0.27942698      0.24524169
C      -1.46203007      1.12912899      0.42999371
N      -0.18031684      1.24029920      0.32424858
H       2.52006591      1.72745252      0.14113771
H       3.68746290      0.28217522     -0.21183388
H       1.92717305     -1.12153242     -0.27432040
H      -0.54024643     -1.87032021      0.73346598
H      -0.70723669     -1.58077923     -0.99220882
H      -2.52607779     -0.62729652      1.13066762
H      -2.69271014     -0.33978949     -0.58800085
H      -2.08615263      1.98925697      0.63469054
