15
b3lypvtz=-193578.98454935
C      -2.97259814     -0.86158738     -0.42702641
C      -2.17116028     -0.02385218     -0.11962442
C      -1.19433262      1.00390697      0.25430550
O       0.13923470      0.68992272     -0.09991148
C       0.69364843     -0.38665798      0.63334000
C       2.11943480     -0.61583202      0.24609678
C       2.79497043      0.06896647     -0.66527477
H      -3.68208695     -1.60103474     -0.70392532
H      -1.43015905      1.93406287     -0.26451241
H      -1.27077564      1.19819982      1.33287079
H       0.63472683     -0.17488842      1.71283242
H       0.11407543     -1.30428256      0.46275699
H       2.59922040     -1.42763774      0.78438552
H       3.82713611     -0.16628835     -0.88704459
H       2.33641956      0.87923353     -1.21438760
