18
b3lypvtz=-181891.38080796
C       2.87845538      0.09170251      0.05244171
C       1.70279263     -0.47588683      0.29054762
C       0.53891144     -0.49669217     -0.65663904
C      -0.73002425      0.11762144     -0.07849425
C      -0.67766108      1.60885989      0.16680132
C      -1.60927435     -0.71808407      0.77595629
N      -1.96966327     -0.45471375     -0.63129002
H       3.08258926      0.60344888     -0.88113829
H       3.68193404      0.06030282      0.77666883
H       1.54585619     -0.97727914      1.24229137
H       0.80195859      0.02355915     -1.58240236
H       0.30365674     -1.52866568     -0.93117156
H      -0.51905494      2.14687743     -0.77176035
H       0.14220218      1.87030378      0.83764320
H      -1.60726505      1.96849912      0.61163293
H      -2.17744255     -0.22776297      1.55795210
H      -1.34489747     -1.74686392      0.99068311
H      -2.69323649      0.25602149     -0.67474861
