13
b3lypvtz=-190472.68201868
C      -2.59659121      0.33589195      0.00008662
C      -1.57769735     -0.51523373     -0.00001039
N      -0.21726608     -0.18281138     -0.00022286
C       0.37913837      1.06577387     -0.00023907
C       1.72273356      0.83298467      0.00005294
N       1.98460679     -0.52046799     -0.00083776
C       0.81289143     -1.09409210     -0.00023742
H      -3.60662231     -0.04385321      0.00017227
H      -2.46837743      1.40838039      0.00003938
H      -1.74200983     -1.58455592      0.00003385
H      -0.19155115      1.97526140     -0.00041703
H       2.51824071      1.55890775      0.00102591
H       0.62385350     -2.15563571      0.00072256
