16
b3lypvtz=-181141.75140788
C      -2.62509435     -0.35434551     -0.15146208
C      -1.41838970     -0.46243695      0.39869734
C      -0.25337621      0.38139839      0.06365738
C      -0.38619304      1.70205178     -0.12740860
C       1.07163623     -0.28298192     -0.01908287
C       1.19156074     -1.60224594     -0.23795526
N       2.17851153      0.56965840      0.06299208
H      -3.44323570     -0.98764208      0.16477924
H      -2.83081313      0.35787660     -0.94050397
H      -1.24866495     -1.22952877      1.14667535
H       0.45085350      2.31780904     -0.42373338
H      -1.34434966      2.18708412     -0.00675807
H       0.32697441     -2.21864989     -0.42395087
H       2.16206268     -2.07836759     -0.28862104
H       3.06376548      0.08905714      0.11289402
H       2.10277618      1.28230319      0.77384072
