15
b3lypvtz=-216948.33656554
C       2.05409501      0.88879709     -0.29069710
C       1.20565783     -0.29565398      0.09540089
O       1.42231995     -1.41862666     -0.29545084
C      -0.00003798      0.00015127      0.99483530
C      -1.20592424      0.29566517      0.09559112
C      -2.05393794     -0.88897401     -0.29076897
O      -1.42304941      1.41863658     -0.29504121
H       1.42058513      1.70148079     -0.65245087
H       2.78006071      0.60151494     -1.04695669
H       2.57586220      1.26499483      0.59338979
H       0.18198741      0.87821321      1.61167867
H      -0.18199110     -0.87765615      1.61205374
H      -1.42008506     -1.70126557     -0.65284648
H      -2.57555001     -1.26560256      0.59322890
H      -2.78009550     -0.60167294     -1.04685124
