14
b3lypvtz=-227004.2391313
C      -2.62565794     -0.14426957     -0.37006304
C      -1.23058989      0.18403019      0.07721369
N      -0.74970040      1.29313055      0.45165617
O      -0.44944726     -0.92568489      0.04316667
C       0.89404053     -0.76726052      0.50187620
C       1.75500293      0.02574130     -0.46418321
O       2.89584270      0.31546369     -0.22588647
H      -3.06754059     -0.88182270      0.30129042
H      -3.24918245      0.74636287     -0.38532843
H      -2.60384862     -0.58600635     -1.36697742
H      -1.44650130      2.02962214      0.42696082
H       1.29583076     -1.77818505      0.57647176
H       0.92589275     -0.28993818      1.48108333
H       1.26939278      0.28332852     -1.42620749
