11
b3lypvtz=-233870.37999848
N      -1.73266958      0.25235074      0.70226823
N      -1.66160986     -0.55630135     -0.23841652
N      -0.39492874     -0.93919097     -0.53624166
C       0.77593840     -0.44573986      0.05319771
N       1.81716315     -1.12138336      0.31646548
C       0.91303927      1.05588850      0.22523593
O       0.50437871      1.84578872     -0.57935093
H      -2.72369814      0.47983806      0.80354608
H      -0.35866318     -1.75860676     -1.11992158
H       1.70594314     -2.11543692      0.11209438
H       1.52168883      1.33725419      1.10064888
