15
b3lypvtz=-191217.11670081
C       1.67941071      1.44395275     -0.00000789
C       1.49022976      0.12155535     -0.00000880
C       2.61982506     -0.87356180     -0.00003491
C       0.13253376     -0.44575454      0.00001333
N      -0.93587034      0.25407664      0.00000068
C      -2.15320720     -0.44122334     -0.00000118
N      -3.29356667      0.10736202     -0.00000659
H       0.83665357      2.12078443      0.00001732
H       2.67377437      1.87010180     -0.00002483
H       2.57261930     -1.52351711      0.87781034
H       3.58709272     -0.37443658     -0.00007295
H       2.57256114     -1.52353818     -0.87786139
H       0.07743947     -1.54320137     -0.00001036
H      -2.09688014     -1.53601066      0.00004175
H      -3.18066450      1.12371958     -0.00002750
