17
b3lypvtz=-171049.01296923
C       1.52509380     -0.77711043      0.00000151
C       1.52509552      0.77710621     -0.00000005
C       0.02178207      1.03558163     -0.00000283
C      -0.67804444     -0.00000218     -0.93732017
C      -1.90448929      0.00000172     -0.00000119
C      -0.67804547      0.00000274      0.93731926
C       0.02177976     -1.03558255      0.00000274
H       2.01517374     -1.19763408      0.87998366
H       2.01517126     -1.19763519     -0.87998154
H       2.01517727      1.19762877     -0.87998171
H       2.01517305      1.19762989      0.87998348
H      -0.33384609      2.06533332     -0.00000541
H      -0.66829848     -0.00000544     -2.02768690
H      -2.52217650      0.89919419     -0.00000371
H      -2.52217869     -0.89918926      0.00000098
H      -0.66830096      0.00000614      2.02768600
H      -0.33385057     -2.06533349      0.00000489
