15
b3lypvtz=-191237.32003348
C      -2.41848279     -0.27297338     -0.55188037
C      -1.41533655     -0.58996305      0.56330455
C       0.00298458     -0.16780352      0.25028866
C       0.29439077      1.21793808      0.14118426
N       0.56505296      2.33935314      0.05377424
C       1.00887969     -1.05197856      0.05260601
N       2.29059004     -0.76105790     -0.31036654
H      -3.42639799     -0.57607548     -0.26317744
H      -2.43994023      0.79604267     -0.76795815
H      -2.15569888     -0.79473465     -1.47342863
H      -1.41422752     -1.66362512      0.76403490
H      -1.74270682     -0.10422666      1.48681055
H       0.79773480     -2.11022091      0.14896832
H       2.59427621      0.19955564     -0.28131379
H       3.00324871     -1.44943229     -0.15019256
