17
b3lypvtz=-191960.7404399
C      -1.96679074      1.11491129      0.00985502
N      -2.04973658     -0.33268331     -0.10379839
C      -1.01284116     -1.03003293      0.09210163
N       0.26615196     -0.58447328      0.45628610
C       1.45264649     -1.23470796     -0.07339903
C       1.13324815      0.17522607     -0.44325723
C       1.88627613      1.34840850      0.12239548
H      -2.95773237      1.50579959      0.23889212
H      -1.65589223      1.56173737     -0.93981542
H      -1.26754954      1.44846607      0.78389591
H      -1.10334765     -2.11608490      0.05135327
H       1.31352553     -2.00194848     -0.82827985
H       2.24010770     -1.43362635      0.64411150
H       0.75182723      0.30768959     -1.45139435
H       2.23501322      1.13002021      1.13165936
H       1.25222882      2.23568047      0.16714702
H       2.75120403      1.58399906     -0.50090214
