22
b3lypvtz=-183441.87401219
C       3.48077667      0.25088172      0.09494882
C       2.21079816     -0.53639090     -0.22511561
C       0.92799156      0.19118455      0.18356698
C      -0.34336552     -0.59121522     -0.15062978
C      -1.64356945      0.05429213      0.33927456
C      -2.85030161     -0.82134789      0.01364831
N      -1.82754602      1.36327674     -0.30574437
H       3.56148397      0.45206482      1.16572379
H       4.37609434     -0.29485942     -0.20756877
H       3.48908748      1.21316206     -0.42204375
H       2.17489625     -0.75048694     -1.29767586
H       2.24784382     -1.50864212      0.27625348
H       0.90581642      1.16430539     -0.31689647
H       0.95927581      0.39513724      1.26040532
H      -0.27098903     -1.59014785      0.29164412
H      -0.41419414     -0.72628427     -1.23441798
H      -1.57685948      0.14245093      1.43598671
H      -2.95239232     -0.93906602     -1.06667418
H      -2.74956600     -1.80983216      0.46413811
H      -3.77332715     -0.37601367      0.39276420
H      -2.72098923      1.76106732     -0.03924503
H      -1.11960851      2.01891454      0.00216642
