15
b3lypvtz=-216923.56773749
C      -1.27681034      1.53744993      0.39755275
C      -0.33686773      0.66744175     -0.43130117
O       1.01389505      1.07981971     -0.23715325
C       1.84158636     -0.04656057      0.10680258
C       0.89724243     -1.19843075      0.25609403
C      -0.32746232     -0.79336177     -0.05459765
O      -1.45425145     -1.55258396     -0.07262768
H      -2.32347604      1.26787430      0.22792875
H      -1.05539336      1.43462353      1.46002065
H      -1.15734291      2.58294603      0.11396564
H      -0.60089280      0.77696793     -1.49571115
H       2.38878577      0.19063202      1.02580514
H       2.58342626     -0.20642705     -0.68633422
H       1.18869557     -2.19421868      0.55120209
H      -2.21489248     -1.00304043     -0.28484350
