15
b3lypvtz=-170293.99057702
C       1.83496141      1.89197223      0.00002807
C       1.28220826      0.82260564      0.00000507
C       0.69331079     -0.47396088      0.00000770
C       1.65645309     -1.63483948      0.00001295
C      -0.64560116     -0.65291161      0.00000591
C      -1.64294367      0.39347665     -0.00000049
C      -2.95976763      0.16412503     -0.00000036
H       2.31078289      2.84065623      0.00001376
H       1.12258417     -2.58425493      0.00001637
H       2.30615460     -1.59997428      0.87734340
H       2.30615549     -1.59998149     -0.87731713
H      -1.01595022     -1.67311849      0.00001009
H      -1.27926033      1.41501145     -0.00000568
H      -3.67518452      0.97466998     -0.00000552
H      -3.36017817     -0.84274806      0.00000486
