15
b3lypvtz=-216902.83946804
C      -1.66349364      0.73153312      0.60224435
C      -0.92541953     -0.59836218      0.50219054
C       0.36213557     -0.55306080     -0.32518620
O       0.87544769     -1.87461925     -0.31126637
O       0.00318721     -0.14972511     -1.63690631
C       1.37360632      0.37509807      0.21995548
C       2.22190445      1.11504312      0.63521625
H      -2.57691354      0.61099465      1.18575179
H      -1.93681213      1.10147639     -0.38494407
H      -1.05318478      1.49122107      1.09282286
H      -0.66233405     -0.97624315      1.49025985
H      -1.55157276     -1.35291753      0.02229799
H       1.78073063     -1.86386945     -0.64071458
H       0.78637167      0.17173471     -2.09574192
H       2.96634690      1.77159635      1.01202034
