17
b3lypvtz=-217675.65525533
C       2.99096723     -0.47576342      0.26850508
O       1.85507749      0.31290543     -0.05084925
C       0.69248956     -0.37933010     -0.21264069
C      -0.50578048      0.20481758     -0.21873104
C      -0.71269511      1.67191741      0.01974876
C      -1.71730159     -0.63236362     -0.48793862
O      -2.56845629     -0.61837123      0.66655507
H       3.15238592     -1.25922653     -0.47903367
H       3.84818816      0.19337753      0.27280198
H       2.88965963     -0.93749364      1.25511800
H       0.80483477     -1.44889630     -0.36880664
H       0.21313164      2.16315054      0.31041086
H      -1.45598214      1.82411887      0.80422459
H      -1.09082756      2.16544408     -0.88161925
H      -2.26194896     -0.22650325     -1.35109459
H      -1.42026408     -1.65797550     -0.73543631
H      -3.44634419     -0.90734085      0.40175370
