16
b3lypvtz=-204446.02828198
C      -2.55570942     -0.43994935      0.17607096
C      -1.24994830     -0.70327406      0.06682155
N      -0.22930721      0.22547255     -0.11539304
C      -0.56744247      1.63147571     -0.22210937
C       1.10415857     -0.13612389      0.01340133
C       2.12188004      0.69200965      0.29703324
O       1.28248178     -1.47282846     -0.21272414
H      -3.24457568     -1.26292742      0.28949605
H      -2.97538398      0.55431759      0.15998311
H      -0.89641292     -1.72058698      0.11386447
H      -0.75819851      2.08758006      0.75455857
H       0.24598065      2.16142551     -0.70970322
H      -1.46314099      1.73489589     -0.83262703
H       1.96962652      1.72409929      0.55902582
H       3.13771901      0.32634381      0.26863282
H       2.17769891     -1.70243591      0.05415687
