16
b3lypvtz=-204458.92504494
O       2.43223083      0.08711654      1.41744459
C       2.10693207      0.16376060      0.25918230
C       0.83555690     -0.41651143     -0.31383410
C      -0.06910118      0.69077931     -0.92686768
C      -1.48069498      0.25703010     -0.50866006
C      -1.24246829     -0.37973986      0.85858778
N       0.01120725     -1.12156659      0.66415214
H       2.75779637      0.67702448     -0.47996284
H       1.16140541     -1.10047341     -1.11203709
H       0.16663688      1.66223783     -0.48552752
H       0.05659614      0.78017620     -2.00441562
H      -2.18478531      1.08774734     -0.47530334
H      -1.86786533     -0.49064437     -1.20326150
H      -2.04613589     -1.05573813      1.15508499
H      -1.16142793      0.40206599      1.62668375
H       0.52401705     -1.24316460      1.52883419
