10
b3lypvtz=-246356.95054524
N       0.80561749     -0.04070536      0.11323904
C       0.49922347     -0.74251785     -0.86938573
O       1.31990691     -1.40929529     -1.80183920
C       2.66226522     -1.36370407     -1.73908429
O       3.33709438     -0.79033317     -0.93932269
N       3.14189905     -2.17983329     -2.87854850
N       4.37560756     -2.20085574     -2.90890385
H       1.81010606      0.05233228      0.24407309
H      -0.52525539     -0.94831948     -1.15832612
H       4.63493524     -2.78216803     -3.72010175
