19
b3lypvtz=-171828.69499656
C      -2.70081955      0.17057449     -0.31116355
C      -1.81370794     -0.46843378      0.44459089
C      -0.36326111     -0.18550989      0.55242215
C       0.62527260     -0.72130958     -0.47526371
C       1.91435442     -1.38868065     -0.05952892
C       0.37759855      0.76294362     -0.35324344
C       1.40094647      1.72857336      0.19937494
H      -2.43022470      1.01873622     -0.92754863
H      -3.73803066     -0.13579318     -0.33652646
H      -2.16029655     -1.30257460      1.04989789
H       0.01335362     -0.22902011      1.57041310
H       0.15294558     -1.17730066     -1.33811296
H       2.66523706     -1.32519567     -0.85107425
H       2.34109284     -0.93754148      0.83625235
H       1.75066107     -2.44729749      0.15419668
H      -0.20989503      1.17958019     -1.16264924
H       2.12805723      2.01617188     -0.56377517
H       1.95315739      1.30712293      1.03944461
H       0.91581173      2.64041338      0.55419471
