13
b3lypvtz=-216111.53979934
C      -0.82181894      0.66771795     -0.74461034
C      -1.24292565     -0.00769778      0.57728236
C      -0.30162083     -1.19183819      0.27297297
C       0.43972115      0.14537017     -0.00335004
O      -0.11392586      0.68339030      1.26309999
C       1.88235034      0.38603807     -0.30259936
O       2.41937359     -0.01127360     -1.30404644
H      -0.92124164      1.74967301     -0.76970569
H      -1.08881347      0.18248048     -1.68128301
H      -2.20456174     -0.00045261      1.08226675
H      -0.52723935     -1.82535542     -0.58253517
H       0.05511165     -1.74078945      1.14042043
H       2.42559072      0.96273707      0.47267267
