19
b3lypvtz=-192729.03421194
N       2.77144332     -0.53536258     -0.28886142
C       1.84551620      0.53663567      0.09289247
C       0.42818902      0.20267649     -0.33138287
C      -0.33267432     -0.91054956      0.44559793
C      -1.59644244     -0.01265777      0.48312961
N      -2.63058785     -0.46315424     -0.44033049
C      -0.69947493      1.19464595      0.05689960
H       3.72255242     -0.28916309     -0.04165342
H       2.55313443     -1.38402756      0.22137872
H       2.16650440      1.45049549     -0.41536751
H       1.84733480      0.75819068      1.17217807
H       0.43075417     -0.00486423     -1.40284987
H      -0.46112035     -1.87536570     -0.04476165
H       0.08341059     -1.07744639      1.44143488
H      -2.06032003      0.09260572      1.46419669
H      -2.25322732     -0.58015011     -1.37482393
H      -3.37003134      0.22749927     -0.50976196
H      -0.41934687      1.82122177      0.90697912
H      -1.09595189      1.83541417     -0.73195296
