16
b3lypvtz=-232767.67137385
O      -2.32227078     -1.12361368      0.39740125
C      -2.22396281     -0.32819258     -0.50112655
C      -1.29205868      0.85841231     -0.51289408
C      -0.34804077      0.95405739      0.68701700
C       0.81158490     -0.05226488      0.68167646
C       1.87444024      0.26419500     -0.35206766
F       2.90210558     -0.67859432     -0.28062763
H      -2.86055720     -0.42254705     -1.40636916
H      -0.76068188      0.84824880     -1.47091960
H      -1.93856305      1.74340036     -0.57114902
H       0.05153250      1.97035238      0.74274112
H      -0.93352603      0.80044475      1.59395882
H       0.43425962     -1.06224886      0.51554103
H       1.28862639     -0.05341915      1.66393852
H       2.32017826      1.24703737     -0.17609514
H       1.48585571      0.23495716     -1.37273737
