11
b3lypvtz=-233858.33513611
N       3.15692186     -0.66797601     -0.00001864
C       2.22790907      0.18826588     -0.00000438
N       0.85770628     -0.12256464      0.00001588
C       0.06262165      0.85795429      0.00001935
O      -1.28473941      0.79208023      0.00002410
N      -1.81298290     -0.56150418      0.00011311
N      -3.02069015     -0.46553669      0.00001785
H       2.75533846     -1.60804784      0.00000957
H       2.49683788      1.25041381     -0.00005310
H       0.35143168      1.91216789      0.00000447
H      -3.36608742     -1.43255774      0.00008579
