11
b3lypvtz=-241295.52833686
C       0.84630665      0.73831942      0.78474499
C      -0.00613067     -0.04620532     -0.04145557
C       0.85939764     -0.90231191     -0.63906376
O       2.11495772     -0.66945984     -0.22426856
N       2.09846854      0.38282956      0.68803831
C      -1.48883256      0.07474022     -0.18677124
F      -1.95554770      1.10249653      0.62737663
H       0.57008974      1.54724315      1.44087734
H       0.73905083     -1.69995291     -1.35266843
H      -1.77677865      0.31348902     -1.21289977
H      -2.00098155     -0.84118792      0.11609008
