18
b3lypvtz=-205195.35733093
N       3.21885503     -0.50978412     -0.04678185
C       1.88350159     -0.11139992     -0.49217546
C       0.97192906      0.49082302      0.58587342
C      -0.39615297      0.96745845      0.07641237
C      -1.30476901     -0.14603758     -0.38079525
C      -2.25060574     -0.79828995      0.52930051
O      -2.70552655      0.15284732     -0.43817241
H       3.70753951      0.28095203      0.35831772
H       3.15473071     -1.21209020      0.68160707
H       2.00366343      0.61091013     -1.30502814
H       1.41214661     -0.99103918     -0.93662237
H       1.49113995      1.34179459      1.03744768
H       0.83067651     -0.24257233      1.38698914
H      -0.25430935      1.66890819     -0.75226038
H      -0.91371433      1.51986757      0.86367105
H      -0.96076671     -0.72615041     -1.23321388
H      -2.55867706     -1.82392016      0.35228101
H      -2.30619168     -0.46796344      1.56247076
