18
b3lypvtz=-202825.48824086
C       1.24632011      1.34273437     -0.57642244
C       1.15744573     -0.14811640     -0.26764466
N       2.40384314     -0.57455144      0.38313974
C      -0.00833988     -0.48677901      0.68149255
C      -1.37625740     -0.24223429      0.07221767
N      -1.94103877     -0.97979451     -0.80453755
N      -1.99664012      0.92107178      0.47330239
H       1.43878969      1.90666321      0.33849558
H       0.32536693      1.70981928     -1.02701165
H       2.06421475      1.54128908     -1.27265611
H       0.97499373     -0.68052214     -1.21161458
H       2.42383951     -1.58246211      0.49307362
H       3.20129563     -0.32909454     -0.19263685
H       0.12726041      0.08198026      1.60436565
H       0.05468215     -1.54438438      0.94793198
H      -1.35049409     -1.77069186     -1.04526821
H      -1.76653374      1.30040453      1.37445768
H      -2.95899380      1.01510914      0.18921320
