16
b3lypvtz=-202050.16688982
C       3.21706369     -0.26683638      0.39374534
N       2.02376810     -0.16569668     -0.42108330
C       0.86839964      0.39898252      0.02567053
N      -0.25806810      0.21377167     -0.53310694
C      -1.39559881      0.93839597     -0.02549182
C      -2.58087242      0.03855906      0.25117326
N      -2.63739423     -1.21463609      0.10501993
H       3.23101515     -1.15893610      1.02931270
H       4.10165436     -0.28355426     -0.24235762
H       3.28993185      0.60886291      1.03829859
H       1.90494084     -0.83522897     -1.16589393
H       1.00920974      1.05610494      0.89343218
H      -1.17626691      1.50460101      0.89554073
H      -1.72167836      1.68480061     -0.76237299
H      -3.47164073      0.55873603      0.61385601
H      -1.73536180     -1.54639024     -0.25021668
