21
b3lypvtz=-172596.29618012
C      -1.62184500      1.12660491      0.56921456
C      -0.90955226      0.17158720     -0.40102625
C      -1.61543381     -1.18842042     -0.40428088
C       0.60110696      0.12067516     -0.11960311
C       1.34363022      1.37559489     -0.54423428
C       1.37866738     -1.16669021     -0.23984084
C       1.10612432     -0.57292557      1.11976307
H      -1.18273353      2.12426801      0.56115863
H      -1.56826913      0.74807435      1.59258231
H      -2.67657933      1.22892779      0.30683313
H      -1.01736671      0.58650905     -1.41014278
H      -1.51595229     -1.70216633      0.55491404
H      -2.68275235     -1.05283349     -0.58722260
H      -1.23094645     -1.84675660     -1.18311103
H       1.24420476      1.54054406     -1.62054242
H       2.40806096      1.29657351     -0.31820616
H       0.96759493      2.26518197     -0.03528307
H       0.86233304     -2.07922715     -0.49867909
H       2.38616705     -1.10704960     -0.63031386
H       0.39442700     -1.08602480      1.75291018
H       1.92623524     -0.11876175      1.66022643
