16
b3lypvtz=-181138.38471287
C      -1.67740147      0.21359974     -0.35928349
C      -0.86086777      1.24385080     -0.12267805
C       0.36610030      0.76417362      0.61543562
C       1.66565036      0.61009322     -0.22251247
C       1.27423956     -0.86531389     -0.52251478
C       0.17014275     -0.78568891      0.57174758
N      -1.22843260     -1.00271093      0.17943474
H      -2.63713206      0.23960415     -0.85596796
H      -1.06973130      2.27498453     -0.36029590
H       0.48521457      1.23914691      1.59187594
H       2.56664068      0.68985466      0.38695724
H       1.76674553      1.27050969     -1.08351778
H       0.85248081     -0.99753630     -1.51879020
H       2.05021787     -1.61503069     -0.37027672
H       0.41251349     -1.33483661      1.48033340
H      -1.40718272     -1.82815797     -0.37596118
