16
b3lypvtz=-204461.15500654
C       2.42121559     -1.05450277      0.09406171
N       1.01741640     -0.79015753     -0.16575561
C       0.40757529      0.42325316     -0.04244855
C       1.31817632      1.61784661      0.00648390
C      -0.94898553      0.59895890      0.00008440
C      -1.93824688     -0.44484672      0.01820267
O      -3.14454769     -0.27089589      0.04051712
H       2.68954744     -0.94419525      1.15039152
H       2.63774965     -2.07844546     -0.20420112
H       3.06302004     -0.39886618     -0.49290555
H       0.41588957     -1.59527309     -0.14979638
H       1.95484223      1.66354613     -0.88003341
H       1.97690292      1.57950633      0.87701010
H       0.73520841      2.53251460      0.05998148
H      -1.33102133      1.60946456      0.03156633
H      -1.55484341     -1.49246242      0.02639639
