11
b3lypvtz=-210600.04314144
N      -2.28003913     -0.11865423     -0.00006000
C      -1.00835116      0.00386211     -0.00016553
C      -0.19288853      1.22166249     -0.00017357
N       1.09344983      1.22618924      0.00022709
C       1.72339201     -0.00327317      0.00038213
N       1.13070330     -1.15289417      0.00009251
N      -0.20581464     -1.13178640     -0.00029559
H      -0.65961844     -2.03331537     -0.00028057
H      -2.73372471      0.79034173     -0.00008838
H      -0.71701959      2.17436055     -0.00009782
H       2.80271107     -0.00683977      0.00059273
