17
b3lypvtz=-191974.47743804
C       2.35346800     -0.84120451      0.14863780
C       0.88461767     -1.10237440      0.01422723
C      -0.09706315     -0.23292573     -0.26037037
C       0.11519288      1.21845348     -0.46745424
N       0.81651249      2.03425388      0.20951198
C      -1.53223764     -0.69507331     -0.42699008
N      -2.48729199     -0.18181003      0.56326079
H       2.91973944     -1.58740371     -0.41355708
H       2.64115530      0.14723559     -0.20522374
H       2.67599862     -0.93301422      1.19067885
H       0.59414482     -2.14449808      0.12228106
H      -0.43584775      1.64155123     -1.31409145
H       1.25832676      1.55950428      0.99869943
H      -1.89983775     -0.39974783     -1.41416093
H      -1.56344538     -1.78536212     -0.39780754
H      -2.14823462     -0.36406601      1.50119018
H      -2.58630971      0.82351950      0.48186810
