14
b3lypvtz=-250314.11594388
N      -0.16085939     -1.78618190      0.05151508
C       0.26705738     -0.45540778     -0.20389284
C       1.74082243     -0.27734958      0.10179003
O       2.14262750      1.00370411     -0.35494070
O      -0.42925291      0.56516231      0.61654317
C      -1.68980876      0.83307577      0.27859429
O      -2.32155192      0.30493509     -0.59969406
H      -1.11625975     -1.92708479     -0.24644148
H      -0.07225054     -2.04007904      1.02718950
H       0.06551336     -0.20445286     -1.24296466
H       2.27834965     -1.07959332     -0.41185459
H       1.89832734     -0.38788938      1.18218298
H       3.06518064      1.14015411     -0.12445169
H      -2.08628704      1.62001225      0.93481096
