14
b3lypvtz=-201271.96908554
C      -2.30014700     -0.02943215      0.01508753
N      -0.88096682      0.00526652     -0.29726360
C      -0.18863543      1.18110320      0.07644283
C       1.14012122      1.17141881      0.08535982
N       1.78423104     -0.05360313     -0.26225899
C       1.02374872     -1.16793799      0.12277831
N      -0.24513847     -1.19219658      0.14697930
H      -2.72590536     -0.93877962     -0.40204611
H      -2.50071090     -0.01311815      1.09482368
H      -2.78337444      0.82900086     -0.45087351
H      -0.77255045      2.04285532      0.36224201
H       1.75263510      2.00728397      0.38006917
H       2.75811631     -0.11122342     -0.00934302
H       1.56036146     -2.05863964      0.42402258
