10
b3lypvtz=-279680.86355197
C       1.72707845      0.66056543     -0.43611075
N       0.68621988      0.42891207      0.26657661
C      -0.33762052     -0.34400514     -0.17453764
F      -0.30553387     -0.91856884     -1.40294172
C      -1.40319059     -0.54208565      0.62405949
O      -1.55459893     -0.03684826      1.84437294
F      -2.42996293     -1.28027149      0.25774094
H       2.50426781      1.28810934     -0.01640097
H       1.86972360      0.25715719     -1.43650844
H      -0.75638289      0.48703533      2.02564954
