17
b3lypvtz=-215280.38943868
C      -2.67063282      0.19043640      0.64399340
C      -1.22866295     -0.29351384      0.78451344
C      -0.25287837      0.50034207     -0.10091871
C       1.17318930      0.05885336      0.01643419
N       1.78140285     -0.49817413     -0.94579733
N       3.07504123     -0.95360872     -0.71473429
O       1.81182374      0.26192984      1.22253567
H      -3.34581994     -0.38944004      1.27463929
H      -2.76722652      1.24018802      0.93057652
H      -3.01693999      0.09704081     -0.38732150
H      -0.92361011     -0.22650358      1.83349112
H      -1.16143718     -1.35023430      0.51666528
H      -0.32465518      1.56703415      0.14861380
H      -0.53611563      0.39855081     -1.14772832
H       3.57283606     -0.41422314     -0.01299120
H       3.57246011     -0.95021423     -1.59250434
H       1.24122539      0.76153650      1.81349022
