10
b3lypvtz=-199784.13044952
N       3.00007540     -0.11904906      0.01517971
C       1.89379465     -0.45419358     -0.00020156
C       0.52704652     -0.80387330     -0.01328175
C      -0.43506205      0.15617413     -0.00508005
N      -0.21488002      1.50053767     -0.03675280
C      -1.81336637     -0.24412333      0.00138011
N      -2.92506484     -0.54364178      0.01667077
H       0.25126763     -1.84576959     -0.03230387
H       0.72572523      1.83902540      0.08573224
H      -0.96403715      2.12972843      0.18855520
