14
b3lypvtz=-203665.63737603
C      -2.72847658     -0.27641376      0.49093858
C      -1.85349338     -0.53819049     -0.47152486
C      -0.56938460      0.17729196     -0.65238187
O      -0.21685768      1.17906887      0.29150519
C       0.57447765     -0.01692741      0.27606904
C       1.97212684      0.12233006     -0.19838191
N       2.96550580     -0.57403769      0.16476505
H      -3.65220002     -0.83194811      0.57482314
H      -2.54509219      0.50674039      1.21466430
H      -2.05532280     -1.31121567     -1.20618479
H      -0.31799734      0.43024575     -1.68090584
H       0.41751367     -0.67550722      1.12685702
H       2.13126379      0.90728227     -0.94111184
H       2.69308384     -1.26401297      0.86996280
