14
b3lypvtz=-227004.67550767
C      -2.08056018      0.56796029     -0.31970716
C      -0.87838947     -0.27117003     -0.00271982
N      -0.85924898     -1.49345118      0.35083430
O       0.24530363      0.45753977     -0.14148258
C       1.55304136     -0.01551909      0.07367105
C       2.53771720      0.85724855     -0.12115891
O       1.70429734     -1.28222558      0.45100142
H      -2.99548031     -0.01112371     -0.21931951
H      -2.00487525      0.95330239     -1.33694676
H      -2.11934125      1.42629353      0.35178722
H      -1.78581783     -1.89675475      0.40792959
H       2.31676947      1.86555964     -0.42692706
H       3.55817790      0.54709886      0.02976399
H       0.80840636     -1.70475866      0.51725172
