14
b3lypvtz=-226998.63074028
C      -1.98703037     -0.71980413     -0.55107811
C      -1.10375432      0.31238511      0.10130844
O      -1.44414440      1.45883434      0.27277346
C       0.29957447     -0.12041867      0.57067802
O       0.56227518     -1.50554890      0.47919531
C       1.35800922      0.74069735     -0.11042563
N       2.46604100      0.33613251     -0.55938418
H      -2.11691828     -1.58106220      0.10565579
H      -1.52412479     -1.09129770     -1.46998374
H      -2.94787791     -0.27135986     -0.78915489
H       0.32510646      0.11949929      1.63826917
H       0.64835380     -1.75308315     -0.44853948
H       1.09560243      1.79416905     -0.19902036
H       2.58741552     -0.66466005     -0.37953481
