15
b3lypvtz=-214523.79367315
N       1.69902746     -1.00522677      0.57060736
C       1.69853916     -0.09122489     -0.45219767
C       0.83608900      0.92745357     -0.61933521
C      -0.21664270      1.33731043      0.39103818
N      -1.00825277      0.26171236      1.00944354
C      -1.59766533     -0.58108199      0.27511879
O      -1.58118540     -0.69716191     -1.07144253
H       2.53927592     -1.52401968      0.74841652
H       1.09733826     -0.84271781      1.36238888
H       2.45870521     -0.27111447     -1.20348834
H       0.97097215      1.55796755     -1.48821052
H      -0.90341485      2.04762569     -0.08124187
H       0.25407718      1.88187403      1.21493393
H      -2.22670469     -1.34633502      0.72149917
H      -0.83595859     -0.16901009     -1.41271322
