15
b3lypvtz=-193597.37224611
C      -2.58086982      0.24703129     -0.10748190
C      -1.23796304     -0.17736449     -0.61605832
C      -0.12567036     -0.23628085      0.11281781
C       1.20428822     -0.71767139     -0.43012671
C       2.32187448      0.13180009     -0.01975029
C       3.21268138      0.83461192      0.37133885
O      -0.13632802      0.06973632      1.45000121
H      -3.00229267      1.04123674     -0.72939900
H      -3.29501902     -0.58172248     -0.12773528
H      -2.51792461      0.61054485      0.91629169
H      -1.16250589     -0.47712296     -1.65382778
H       1.39562649     -1.73399274     -0.06599560
H       1.15427154     -0.77251594     -1.51798741
H       4.01104948      1.45609844      0.69310902
H       0.75878185      0.30561120      1.72480371
