9
b3lypvtz=-212229.31783206
C       1.46961129      0.12219124     -0.22719737
C       0.30640999      0.27022169      0.05193207
C      -1.09840111      0.43449652      0.30549180
N      -2.01788871      0.36233252     -0.56288711
O      -1.36520270      0.68246024      1.60164462
C       2.78797827     -0.04519488     -0.54128923
N       3.90361877     -0.18723419     -0.80978771
H      -1.65885498      0.17011637     -1.49251562
H      -2.32727081      0.77731030      1.67460856
