14
b3lypvtz=-226954.60425516
C       2.83090261     -0.71566833     -0.02478814
C       1.57779306     -0.00896827     -0.45829509
O       1.22868364      1.18684745      0.24295221
C       0.37231934      0.03637688      0.38561602
C      -0.97214309      0.16492162     -0.19934927
N      -1.96389660     -0.33438555      0.41632418
O      -3.15795426     -0.14069201     -0.28749918
H       2.85138150     -1.73345673     -0.41961629
H       2.89451782     -0.76012030      1.06223708
H       3.71226686     -0.19130969     -0.39864805
H       1.43033040      0.06452400     -1.53409894
H       0.40508854     -0.44205860      1.35894345
H      -1.08916824      0.69221883     -1.14508086
H      -3.81473158     -0.54325231      0.28993688
