16
b3lypvtz=-204454.8868395
C       2.44628952     -0.45911559     -0.19500442
C       1.15883072     -0.14165192     -0.05036315
N       0.10087163     -0.96071832      0.34322109
C      -1.13493656     -0.18105146      0.47751989
C      -2.17115936     -0.56499334     -0.57610349
C      -0.59870629      1.25343211      0.32464612
O       0.66763590      1.10438126     -0.33100923
H       2.77831968     -1.47639087     -0.06157474
H       3.16004336      0.29727480     -0.47588196
H       0.30500013     -1.64406278      1.05188698
H      -1.56114216     -0.31933679      1.47356386
H      -1.77239993     -0.40132575     -1.57838281
H      -2.43718320     -1.61870984     -0.48638394
H      -3.08117096      0.02862855     -0.46135210
H      -1.22630198      1.88784138     -0.29829141
H      -0.44787350      1.73605858      1.29488930
