16
b3lypvtz=-181115.81625934
C       3.13881774     -0.06848795      0.04547173
C       1.68350218     -0.03508483      0.00791458
C       0.48075507     -0.01099949     -0.01798398
C      -0.96137803      0.05478666     -0.06469665
C      -1.57256280      1.38427594      0.32688287
C      -1.72015872     -1.20901814      0.16763474
N      -1.64998321     -0.63852352     -1.18299881
H       3.55523474     -0.25567341     -0.94657167
H       3.50069570     -0.85296709      0.71340002
H       3.54139900      0.88264295      0.39967118
H      -1.20074920      2.18017945     -0.31966390
H      -1.32201050      1.63554855      1.35856796
H      -2.65609172      1.33717334      0.22553153
H      -2.69530117     -1.15250578      0.63664264
H      -1.15467250     -2.10562385      0.38692524
H      -0.96749659     -1.14572283     -1.73672748
