17
b3lypvtz=-215262.76474324
C      -0.75640695      1.98706645     -0.43780767
C      -0.34259316      0.96011624      0.62729224
C       0.02914010     -0.36272426      0.01522110
N      -0.77093378     -1.35168175     -0.15208370
O      -2.10006547     -1.03018539      0.24503544
N       1.30444350     -0.51786068     -0.52020760
C       2.49135489     -0.08862249      0.20958666
H      -1.63627145      1.64082879     -0.97890046
H      -0.99671362      2.94420242      0.02702918
H       0.04432122      2.14945533     -1.15993715
H      -1.16476053      0.79449531      1.31927184
H       0.49800193      1.34626163      1.20433940
H      -2.55282403     -1.86437624      0.09452179
H       1.39976171     -1.43657748     -0.93148283
H       2.49898490      0.99308522      0.33434106
H       3.36723266     -0.35058219     -0.38199765
H       2.59375409     -0.55208492      1.19854836
