21
b3lypvtz=-193502.69022187
C      -2.96244439     -0.21648430     -0.32899266
C      -1.70628599     -0.07886800      0.52086867
N      -0.57170788      0.36150094     -0.28509796
C       0.68416984      0.56672886      0.44913526
C       1.55674769      1.57579243     -0.29403751
C       1.40043501     -0.77902285      0.64060640
N       1.73850974     -1.37156140     -0.65221767
H      -3.80387878     -0.56085572      0.27417096
H      -2.80354941     -0.92723484     -1.14087258
H      -3.24420274      0.74211203     -0.77237451
H      -1.90260451      0.60364377      1.36502643
H      -1.46150279     -1.04741080      0.96314930
H      -0.82037372      1.21108805     -0.77682871
H       0.47939626      0.96537788      1.45660915
H       1.80728652      1.20879964     -1.28824306
H       2.48881439      1.74684324      0.24610235
H       1.04428343      2.53648326     -0.38743584
H       0.77004447     -1.42429168      1.26987716
H       2.32254123     -0.60329401      1.20147030
H       0.89150615     -1.44851433     -1.20426346
H       2.11882050     -2.30195518     -0.53639903
