14
b3lypvtz=-224579.47051748
C      -1.64402863     -0.76358118     -0.30414759
C      -0.62155380      0.10350243     -0.42189548
C       0.71964626     -0.33665940     -0.08592529
N       1.70059269      0.48159956     -0.09836618
N       2.96056915     -0.00760653      0.16998777
N      -0.78253635      1.40532794     -0.88416229
O      -2.92710746     -0.35310168     -0.58905606
H      -1.49645207     -1.78710754      0.00760480
H       0.84736035     -1.38953763      0.18295427
H       3.53996507      0.73217182      0.53746322
H       2.97205824     -0.81707943      0.78678997
H      -0.03011293      2.01755113     -0.60822068
H      -1.70062711      1.79327264     -0.73751131
H      -3.53777342     -1.07875211     -0.44382230
