19
b3lypvtz=-195163.05922429
C       3.30437274     -0.29210499     -0.00000388
C       1.95888432      0.43166400      0.00001810
C       0.77508009     -0.52998782     -0.00000336
C      -0.58832665      0.14416817      0.00000992
O      -0.70826933      1.34867508      0.00000798
C      -1.79568545     -0.78208651      0.00001992
C      -3.13505341     -0.05664417     -0.00000218
H       4.13271721      0.41782754      0.00001255
H       3.41512293     -0.92862635     -0.88115768
H       3.41512739     -0.92867219      0.88111626
H       1.88585949      1.08726053      0.86971370
H       1.88585407      1.08730517     -0.86964316
H       0.81783268     -1.19751049      0.86870118
H       0.81783110     -1.19746652     -0.86874217
H      -1.70633068     -1.44346616      0.86868331
H      -1.70632024     -1.44350263     -0.86861440
H      -3.95915379     -0.77084776      0.00001043
H      -3.23334326      0.58229509      0.87697511
H      -3.23333620      0.58225501     -0.87700963
