18
b3lypvtz=-205205.92452145
C      -1.65065453     -0.96597244      0.24330519
C      -0.50763148     -0.07081402     -0.20337552
C       0.59883556     -0.69744668     -1.09953358
C       1.68211826      0.00015783     -0.23348342
C       0.60886439      0.20824732      0.85960941
O       0.49867933      1.47110946      1.49006759
N      -1.06000365      1.12649321     -0.83342056
H      -2.28159352     -1.22645203     -0.60735230
H      -2.27473151     -0.45432345      0.98102886
H      -1.27864676     -1.88515764      0.69892902
H       0.63016805     -1.78349022     -1.01699280
H       0.55025350     -0.42686905     -2.15348238
H       2.56848562     -0.57486550      0.03303797
H       1.99749319      0.95476816     -0.65509245
H       0.64136790     -0.59370058      1.60465676
H       1.12926001      1.51612024      2.21454619
H      -1.53521825      1.68531467     -0.13151418
H      -0.31704611      1.71688073     -1.19093381
