12
b3lypvtz=-200506.45470356
C       0.26711667      2.04918654      0.00001079
C       0.35699282      0.71979649     -0.00000919
N       1.59643576      0.02465929     -0.00001642
N       1.36082179     -1.20011291     -0.00003377
N      -0.07923504     -1.47444689      0.00003624
C      -0.66445295     -0.33011037     -0.00001651
C      -2.14210983     -0.15252122     -0.00001120
H      -0.69054224      2.55146346      0.00011768
H       1.16309014      2.65457795      0.00000598
H      -2.63158084     -1.12323148      0.00003098
H      -2.46742365      0.40644963     -0.87994032
H      -2.46742264      0.40652850      0.87986774
