15
b3lypvtz=-191156.37933719
N       2.61194560     -0.42353288      0.15456286
C       1.55922910     -0.58468616     -0.53300989
C       0.18107605     -0.12766586     -0.17440774
C      -1.14142532     -0.28470559     -0.95586594
N      -1.60639553      0.47147201      0.30255611
C      -0.68395782     -0.49744639      1.05965303
C      -0.33338271      1.30969715      0.10323199
H       2.40748571      0.07754244      1.02400372
H       1.66236811     -1.11056695     -1.48624353
H      -1.56964154     -1.28295449     -1.04413481
H      -1.26509460      0.28735549     -1.87518740
H      -1.06957615     -1.51471229      1.11941929
H      -0.37023498     -0.12775691      2.03544284
H      -0.38806347      1.99780666     -0.73972696
H       0.00556754      1.80995376      1.00990642
