17
b3lypvtz=-217692.20990907
C       2.48714287      0.40860792     -0.55897681
C       1.42254089      0.50250429      0.54357386
C       0.19746863     -0.30316356      0.24960491
O       0.46367903     -1.65016124      0.21065626
C      -1.04037943      0.14723378      0.01276493
C      -1.54311324      1.55077881      0.00150710
O      -1.98466863     -0.83115963     -0.33429143
H       3.38255145      0.96526688     -0.27793203
H       2.11316300      0.81862355     -1.49852279
H       2.77101493     -0.62840489     -0.73345649
H       1.15332621      1.54380322      0.71203987
H       1.84761054      0.13125656      1.48143587
H      -0.36875805     -2.09465005     -0.00087568
H      -0.76876458      2.26690941      0.26454248
H      -2.36364751      1.68010173      0.71826417
H      -1.93413945      1.81781086     -0.98468192
H      -2.81733365     -0.64106564      0.11041570
