15
b3lypvtz=-219529.38623186
C      -1.47173382     -1.04346638      0.08093378
C      -0.90477322      0.35000275      0.07849037
C      -1.69757234      1.41634525      0.20957817
F      -3.04143440      1.31115578      0.35293192
C       0.52832960      0.55720431     -0.06508951
C       1.43785105     -0.41914325     -0.21299001
N       2.79551734     -0.23638230     -0.44064371
H      -1.24300010     -1.55777652     -0.85544863
H      -1.04177064     -1.63674546      0.89159071
H      -2.55105256     -1.02805185      0.20627147
H      -1.37031972      2.44653618      0.21555495
H       0.87302362      1.58782542     -0.05809104
H       1.13423684     -1.45834591     -0.22532260
H       3.15651777      0.68061620     -0.22594401
H       3.39618060     -0.96977420     -0.10068088
