16
b3lypvtz=-204455.72197931
N      -2.40592740      0.06165890      0.06290466
C      -1.00882860      0.10200388     -0.01278577
C      -0.27927915      1.21856439      0.06572944
C       1.22305849      1.19950736      0.04451127
O       1.76304730     -0.05105941     -0.36002381
C       1.13128356     -1.13977845      0.28967791
C      -0.33741227     -1.24311354     -0.11189747
H      -2.86171607      0.94143044     -0.13005827
H      -2.82822980     -0.68728155     -0.46612552
H      -0.75650013      2.18807449      0.16199771
H       1.60802047      1.93159767     -0.66907062
H       1.63034560      1.47216915      1.03255980
H       1.68344300     -2.03374954      0.00069532
H       1.21031012     -1.02779622      1.38003195
H      -0.84948421     -1.95612868      0.54148856
H      -0.42201791     -1.62609287     -1.13470117
