17
b3lypvtz=-191988.07103145
C      -2.37132869     -0.00910078     -0.03416738
N      -0.93291399     -0.01330440      0.10888437
C      -0.22860616     -1.19428550      0.10520292
N       1.02762935     -1.36729234     -0.02174841
C       1.85079828     -0.17748468     -0.22566609
C       1.21965810      1.10715348      0.31625421
C      -0.22330857      1.22616341     -0.16695821
H      -2.77184841     -0.98120705      0.25115834
H      -2.81871775      0.74735233      0.61560772
H      -2.68695512      0.20129646     -1.06444302
H      -0.85807935     -2.07044504      0.25740663
H       2.81807497     -0.35005589      0.25090565
H       2.05676574     -0.07359957     -1.29738713
H       1.22771131      1.08153409      1.40850640
H       1.78886444      1.98546209      0.00599891
H      -0.73919878      2.04336014      0.34421603
H      -0.24973536      1.45347023     -1.24207093
