18
b3lypvtz=-181902.87949236
C       0.68028706      1.29847260     -1.08900561
C       0.53028742      0.31499853      0.08067444
C      -0.92508238     -0.00231763      0.38885016
C      -1.44818079      0.34450618      1.56176031
C      -1.72391010     -0.70653220     -0.67265914
N       1.23690042     -0.92075364     -0.26259126
C       2.23961907     -1.24485843      0.42737238
H       0.11430159      2.20956916     -0.89188316
H       1.72968710      1.56372660     -1.22275141
H       0.32528501      0.85644603     -2.01914525
H       0.97076589      0.77386599      0.97655858
H      -2.48533316      0.14451992      1.80030767
H      -0.86010898      0.84216477      2.32289340
H      -1.82769570     -0.08990625     -1.56905129
H      -2.72331171     -0.94766250     -0.31302287
H      -1.22537169     -1.62674556     -0.98034218
H       2.78451650     -2.15519631      0.18578282
H       2.60734447     -0.65429725      1.27625241
