13
b3lypvtz=-216161.42819558
O       2.82178063     -0.09822910      0.33902180
C       2.21764016     -0.74426812     -0.47438182
C       0.70420918     -0.63298619     -0.71004239
O       0.22121497     -1.34803253     -1.56527343
C      -0.04383797      0.32805915      0.11462443
C      -1.24013305      1.02483099     -0.52350615
C      -1.47768975     -0.02840825      0.48981631
H       2.69884174     -1.48803072     -1.13745147
H       0.54504190      0.88249722      0.82910062
H      -1.42857973      0.77665847     -1.55843743
H      -1.39244299      2.05956327     -0.25244277
H      -1.79848515      0.25809145      1.48094920
H      -1.82745993     -0.98984564      0.14142309
