20
b3lypvtz=-182675.78286743
C      -2.16925615     -0.64853428     -0.01146349
C      -1.26337049      0.50715780     -0.43809415
C       0.21829208      0.41515334      0.01538498
C       0.33434472      0.33113632      1.54009025
C       0.95577451      1.67322055     -0.48817459
C       0.85031738     -0.78151966     -0.67922568
N       1.41740121     -1.80231281     -0.19274988
H      -2.29097081     -0.69249132      1.07143406
H      -3.16346743     -0.53085491     -0.44496291
H      -1.77689170     -1.61192555     -0.34153007
H      -1.67059930      1.44948510     -0.05999569
H      -1.27812262      0.58929690     -1.52908828
H      -0.15760412      1.18857309      2.00261911
H      -0.12891920     -0.57042437      1.94226798
H       1.37894800      0.34143998      1.85683384
H       0.50704214      2.57268224     -0.06206684
H       0.90071650      1.75556245     -1.57541990
H       2.00943385      1.65271239     -0.20518464
H       0.79708950     -0.72752422     -1.77209202
H       1.42265895     -1.77422902      0.82850094
