15
b3lypvtz=-191218.50492747
C      -2.72436476     -0.79829458     -0.00000971
C      -1.52746107      0.13342426     -0.00000936
N      -1.61885797      1.40567293     -0.00001522
C      -0.18735488     -0.49232157     -0.00000364
C       0.96355831      0.19190156      0.00000195
C       2.26876538     -0.45794544      0.00000874
N       3.40825065      0.11122480      0.00000776
H      -3.34235248     -0.61538342     -0.88071809
H      -2.43758391     -1.84884634     -0.00001685
H      -3.34234275     -0.61539305      0.88070758
H      -2.59377769      1.70552569     -0.00001856
H      -0.15477371     -1.57664044      0.00000001
H       0.93197132      1.27689947      0.00000055
H       2.25838852     -1.55046127      0.00000541
H       3.30283605      1.12880440      0.00000743
