18
b3lypvtz=-205193.28809334
C      -2.62331650     -0.35468564      0.12567570
O      -1.35512259     -0.56965683     -0.46393159
C      -0.29438142     -0.01575808      0.26833236
C       0.00290664      1.49949302      0.13659386
N       1.43988116      1.15262390      0.00363118
C       1.09402249     -0.25229878     -0.35311314
C       2.00247330     -1.32216621      0.21493679
H      -2.67265597     -0.78217880      1.13468574
H      -3.36040747     -0.84804217     -0.50524889
H      -2.86819087      0.71212281      0.18708620
H      -0.33997630     -0.33561389      1.31629172
H      -0.22767027      2.15246250      0.97981824
H      -0.45685234      1.89921344     -0.77402970
H       1.94402144      1.66735928     -0.70756225
H       0.96044343     -0.39587898     -1.43231240
H       1.58513256     -2.31563415      0.03549077
H       2.13298240     -1.18186348      1.28879548
H       2.98930332     -1.28497394     -0.25173807
