14
b3lypvtz=-201296.62533839
C       2.38274669     -0.00003067      0.63756234
C       1.51370449      0.00003926     -0.61562636
N       0.08954620      0.00001527     -0.30680154
N      -0.59227273      1.12114092     -0.11793309
C      -1.81367524      0.69900155      0.20929949
C      -1.81365774     -0.69903281      0.20927924
N      -0.59224952     -1.12113347     -0.11798331
H       3.43677031     -0.00000845      0.35655647
H       2.18835700     -0.88582708      1.24187636
H       2.18834705      0.88569153      1.24198214
H       1.69878919      0.88502006     -1.22108632
H       1.69880487     -0.88486439     -1.22119487
H      -2.60685039      1.39680535      0.41389612
H      -2.60681518     -1.39685907      0.41386734
