19
b3lypvtz=-218445.01746266
C      -3.50680105     -0.11119898      0.12866483
C      -2.09478892     -0.51607672     -0.29211806
C      -1.04442280      0.47311195      0.18100584
O       0.23359544      0.03845583     -0.25293922
C       1.29702475      0.88836475      0.14517657
C       2.59011916      0.22937534     -0.28818280
O       2.77907406     -1.02916447      0.33875680
H      -3.59643309     -0.04738706      1.21523724
H      -3.78235550      0.86165547     -0.28406350
H      -4.24168727     -0.83703801     -0.22033690
H      -2.03279887     -0.59582883     -1.37985919
H      -1.85093988     -1.50278671      0.10880049
H      -1.25398828      1.47416410     -0.22230773
H      -1.05922397      0.55462533      1.27718580
H       1.19777927      1.87847412     -0.32135525
H       1.28920412      1.01760711      1.23532354
H       3.43523628      0.85656024     -0.00117209
H       2.59527781      0.12996109     -1.38064934
H       1.97196975     -1.53466155      0.19056596
