18
b3lypvtz=-181900.2989977
C       2.60234147     -0.40080706     -0.42577634
N       1.50694251     -0.53966675      0.18145309
C       0.81156527      0.66459045      0.62039332
C      -0.62113570      0.72208311      0.13431834
C      -1.03675700      1.76063855     -0.58668443
C      -1.55378089     -0.39773094      0.53621435
C      -1.51364597     -1.62293962     -0.39171243
H       3.05355533      0.57624187     -0.64175161
H       3.14481834     -1.28241993     -0.76071891
H       1.34424496      1.57767988      0.32363712
H       0.79569967      0.62930082      1.71601599
H      -2.06927757      1.85345853     -0.90141982
H      -0.36405796      2.55526814     -0.88473263
H      -2.57353105     -0.00743560      0.56202626
H      -1.31316174     -0.71781962      1.55408989
H      -2.22793101     -2.37627028     -0.05342685
H      -1.77865230     -1.34073854     -1.41197847
H      -0.52106737     -2.06823501     -0.40663886
