18
b3lypvtz=-181897.23876578
C      -2.61179496     -0.38382586      0.13804914
N      -1.60335888      0.05894850     -0.47745309
C      -0.37014411      0.23167246      0.24749594
C       0.32312016      1.61200390      0.12736144
C       1.68166692      0.87796911      0.00985352
C       0.90250978     -0.40542711     -0.38143780
C       1.37141150     -1.75918499      0.11657520
H      -3.54893026     -0.52217976     -0.39698621
H      -2.60236536     -0.64288916      1.20469270
H      -0.46413293     -0.06666176      1.30262381
H       0.03804696      2.09411187     -0.80699508
H       0.18083493      2.31199586      0.94961142
H       2.17318186      0.77005171      0.97841125
H       2.40607329      1.26524552     -0.70511479
H       0.75860047     -0.42739273     -1.46356580
H       2.32696555     -2.03526152     -0.33538724
H       1.50662779     -1.75555364      1.20089509
H       0.65169028     -2.54327841     -0.12948049
