15
b3lypvtz=-216936.98933055
C      -0.47298631      2.00894142      0.08894756
C      -0.32833054      0.69672632      0.00755973
C      -1.18578538     -0.34957102      0.64957644
C      -1.94377210     -1.22280391     -0.36028472
O       0.67838522      0.20311044     -0.85647466
C       1.74532184     -0.42664225     -0.32156700
O       1.96557145     -0.59533610      0.84182625
H       0.19280100      2.68068647     -0.43299865
H      -1.26783354      2.43321132      0.68416143
H      -0.55737776     -0.97872852      1.28339618
H      -1.89189147      0.15818058      1.30764690
H      -2.61582599     -0.62100088     -0.97344268
H      -1.25888758     -1.74533250     -1.02820330
H      -2.53924082     -1.97272065      0.16121709
H       2.39341398     -0.76030572     -1.14184559
