16
b3lypvtz=-227779.0153837
C       1.93953260     -1.18628570     -0.45685338
C       1.01196890     -0.73969442      0.67351670
C       0.25416916      0.55621077      0.41042622
N       1.10595366      1.65614426      0.13161078
O      -0.67457213      0.34091440     -0.74600243
C      -1.89099522     -0.13861623     -0.48395157
O      -2.32421520     -0.45448108      0.59290189
H       2.40002102     -2.14330091     -0.21032068
H       2.75095631     -0.47506791     -0.62192016
H       1.39594748     -1.31016356     -1.39405724
H       0.27575827     -1.51587341      0.88550358
H       1.58650254     -0.58959434      1.58994861
H      -0.38271288      0.79367164      1.25880873
H       0.59029118      2.51959377      0.02842593
H       1.66422467      1.51088832     -0.69916026
H      -2.46480336     -0.20308061     -1.41991571
