11
b3lypvtz=-210590.59953174
C      -2.50721243     -0.27293582      0.00006675
N      -1.60568585      0.62184748      0.00007217
C      -0.26694009      0.24505479      0.00005045
C       0.80649113      1.10721381     -0.00007316
N       1.87853576      0.28919816      0.00011401
H       2.85704465      0.52352160     -0.00013282
N       1.50942051     -1.00888089     -0.00011767
N       0.21686518     -1.03572960     -0.00009675
H      -2.29564496     -1.34276940     -0.00003371
H      -3.54578561      0.04495722      0.00003721
H       0.86616271      2.17958566     -0.00006747
