16
b3lypvtz=-202017.65682252
C       2.42452340     -1.06269066     -0.17203101
C       1.29952193     -0.23766652      0.39371169
C       1.31654116      1.25349323      0.37280727
N       0.46212389      0.48950805     -0.54573876
C      -0.92533313      0.51542305     -0.37264583
N      -1.57330113     -0.46433800      0.10670098
N      -2.95690097     -0.34044580      0.20035331
H       2.05625187     -2.03096284     -0.51535095
H       2.88872387     -0.55621928     -1.01851802
H       3.18888948     -1.24143934      0.58709921
H       0.76624768     -0.68473509      1.22565859
H       0.83287768      1.77346285      1.19226213
H       2.13998745      1.78174007     -0.09245945
H      -1.40354454      1.42750280     -0.74122046
H      -3.36093917     -1.26508075      0.16109031
H      -3.35987248      0.23516423     -0.53579600
