17
b3lypvtz=-194352.95359866
O       2.48965827     -0.61736723      0.60194032
C       1.41050192      0.27569049      0.87976930
C       0.64426299      0.68423807     -0.35453620
C      -0.83441585      0.96408750     -0.40943808
C      -1.63870891      0.01027697      0.48058783
C      -1.01016253     -1.20361139     -0.27249209
C      -0.23256607     -0.22894996     -1.16178553
H       3.05489322     -0.21491176     -0.06447896
H       1.77541203      1.17333633      1.39478380
H       0.77528528     -0.25853487      1.58379696
H       1.20041303      1.37112047     -0.98781778
H      -1.20817500      1.89732045     -0.80773123
H      -2.70906380      0.08743116      0.29773128
H      -1.47067347      0.07811308      1.55684079
H      -0.40831570     -1.89970092      0.31280157
H      -1.75685146     -1.77130678     -0.82437063
H      -0.08149393     -0.34723161     -2.22570135
