16
b3lypvtz=-181131.78983931
C      -1.98727716      0.03617353      0.67650173
C      -0.79222553     -0.11564861     -0.26292725
C      -0.09461808      1.19422396     -0.56342125
C       1.15708794      1.18155708     -0.11317575
C       1.47858334     -0.14735835      0.46833081
C       1.39318489     -1.29310801     -0.47854664
N       0.24820324     -0.97160201      0.37165104
H      -2.42345690     -0.93946601      0.89256278
H      -1.67469017      0.48876794      1.61823672
H      -2.75484243      0.67027882      0.22786871
H      -1.13061816     -0.60317761     -1.18372391
H      -0.57312864      2.01290101     -1.08377424
H       1.86472979      1.99686192     -0.16713892
H       2.06985311     -0.22430369      1.37314021
H       1.87644748     -2.23328038     -0.24006441
H       1.34276728     -1.05281959     -1.53561963
