14
b3lypvtz=-226997.0221134701
C      -1.02632090      0.30517403     -0.97278138
C      -1.71868407      0.32584327      0.41361663
N      -0.38513666      0.12651080      1.03096370
C       0.17711167     -0.29082196     -0.23560539
O       1.43211569      0.34306612     -0.57801994
C       2.50421924     -0.11110156      0.08244582
O       2.50696554     -0.97981158      0.91196961
H      -1.47579455     -0.30352390     -1.75238965
H      -0.80785441      1.29907562     -1.35525172
H      -2.21710762      1.24838991      0.71205388
H      -2.40880745     -0.51145967      0.54928480
H      -0.29581758     -0.51883264      1.80409139
H       0.31856991     -1.36624054     -0.35766970
H       3.39654117      0.43373212     -0.25270807
