10
b3lypvtz=-251352.58856348
C      -0.64349193      0.31886549      0.32782223
C      -1.84740539     -0.22412621      0.48155291
F      -2.75721466      0.29922696      1.29780520
C       0.32305920     -0.29796528     -0.58531178
O       0.15424690     -1.28496124     -1.24769581
N       1.60193872      0.49427387     -0.58633548
N       2.43827426      0.00058738     -1.34654819
H      -0.35648212      1.21149635      0.86364664
H      -2.19065050     -1.11549109     -0.02685250
H       3.27772552      0.59809377     -1.28905372
