17
b3lypvtz=-171053.87178764
C      -3.31725535      1.06161459     -0.09054330
C      -2.51543373      0.18452435      0.07375557
C      -1.52972717     -0.88005558      0.25716821
C      -0.20127482     -0.57396520     -0.39190698
C       0.96185344     -0.55877573      0.24743734
C       2.29254914     -0.26298800     -0.37822607
C       2.98199363      0.96093705      0.23925167
H      -4.02660305      1.83848851     -0.22921103
H      -1.38617102     -1.06376260      1.32499985
H      -1.94083824     -1.80521644     -0.16323378
H      -0.23543446     -0.35870694     -1.45567136
H       0.97462703     -0.76217831      1.31672833
H       2.16699613     -0.11600328     -1.45337106
H       2.94724452     -1.13291529     -0.25719893
H       3.13137180      0.82906800      1.31283399
H       3.95994799      1.12871337     -0.21457057
H       2.38172117      1.86039850      0.09589211
