17
b3lypvtz=-191944.32839396
C      -1.06276279      1.29348199      0.06643382
C      -0.67003717     -0.16364622      0.04747290
N      -1.81911353     -1.02968556      0.24158499
C       0.57394990     -0.70480936      0.69670022
C       1.77070155      0.22128926      0.51157414
N       1.61864284      0.14034501     -0.97327712
C       0.43856892     -0.71372493     -0.83067989
H      -1.82992030      1.48764346     -0.68803288
H      -1.47691516      1.56188050      1.03934161
H      -0.22295379      1.95418788     -0.14496337
H      -2.41970323     -1.00829924     -0.57622660
H      -1.53652073     -1.99325962      0.37661176
H       0.52995017     -1.53076875      1.39327941
H       2.71638460     -0.21872820      0.83084210
H       1.68398143      1.21986707      0.94875607
H       1.44079762      1.02778027     -1.43266498
H       0.26504969     -1.54335355     -1.50675218
