15
b3lypvtz=-240250.70658896
C       2.29060258     -0.77133822      0.07841522
C       1.28695205      0.26037948      0.59033561
C       0.27790446      0.71049195     -0.45972687
O      -0.55885791      1.73369758     -0.05321308
O      -0.48983589     -0.44796351     -0.96716156
C      -1.44917718     -0.95321541     -0.19706445
O      -1.77262330     -0.57121910      0.90093548
H       3.01768263     -1.01511085      0.85319485
H       2.84176717     -0.39363751     -0.78547764
H       1.79787246     -1.69636695     -0.22069282
H       0.74992349     -0.12036707      1.46047645
H       1.80837107      1.16554274      0.90930814
H       0.78420820      1.05767027     -1.35850539
H      -1.03879514      1.42689923      0.72917461
H      -1.92940969     -1.79373662     -0.71532357
