13
b3lypvtz=-239454.67549254
C       1.34713048      1.07371384     -0.12789663
C       1.22833564     -0.40193712      0.24357038
O       1.85501737     -1.18160308      0.88919053
C      -0.05038916     -0.45548971     -0.60440875
O       0.12178767      0.96296604     -0.89688215
C      -1.36343715     -0.74021410      0.10036689
O      -1.56373602      0.11463390      1.21018155
H       1.26272704      1.77406985      0.70645270
H       2.21100994      1.32902924     -0.74692763
H       0.05277380     -1.07203558     -1.50415764
H      -2.18479685     -0.65726015     -0.62133585
H      -1.34764098     -1.76383417      0.47815434
H      -1.56878175      1.01796104      0.87369228
