14
b3lypvtz=-226982.62400899
C       3.18063458     -0.37980125      0.07498408
C       1.91700728     -0.14625921      0.38889497
O       1.11027054      0.64157476     -0.39471045
C      -0.22303108      0.71332430     -0.02542721
O      -0.86004454     -0.51164918     -0.39082876
C      -2.18639245     -0.64101269     -0.13756796
N      -3.00790564      0.16657621      0.37585654
H       3.78992367     -0.98478111      0.72811046
H       3.62292815      0.02041179     -0.82601461
H       1.44398582     -0.54759140      1.27867725
H      -0.33575857      0.86855862      1.05432088
H      -0.66080560      1.54390828     -0.57975295
H      -2.51081230     -1.62619108     -0.46033504
H      -2.60516386      1.06174495      0.64147080
