14
b3lypvtz=-201252.57682142
C      -3.40648781      0.27087444      0.00003411
N      -2.38061021     -0.47989021      0.00008658
N      -1.20211467      0.30081224     -0.00000314
N      -0.19937231     -0.43765440     -0.00001333
C       1.00133543      0.27502818      0.00002207
C       2.15550823     -0.39840717      0.00001294
C       3.50779928      0.22532475      0.00001060
H      -3.33358759      1.35865550     -0.00004108
H      -4.38313329     -0.19892878      0.00003405
H       0.94919486      1.36098923      0.00004131
H       2.09612663     -1.48150957      0.00000673
H       3.45614689      1.31373349      0.00003139
H       4.08091186     -0.09349608     -0.87528196
H       4.08092370     -0.09352863      0.87528372
