13
b3lypvtz=-192833.89958543
C      -2.29869219     -1.44807343     -0.04995136
C      -1.56627420     -0.49604510      0.00798951
C      -0.65853793      0.60108030      0.10828643
C      -0.98344994      1.81914764     -0.33707106
C       0.69150863      0.30966799      0.73301897
C       1.56460333     -0.57796109     -0.13527295
O       2.73009780     -0.36622562     -0.34335012
H      -2.95787425     -2.27817065     -0.10928569
H      -0.28911312      2.64444274     -0.25621384
H      -1.94728356      2.01601237     -0.78419140
H       0.54184496     -0.22355537      1.67908629
H       1.23625060      1.22889293      0.94077072
H       1.05768987     -1.46102370     -0.57136651
