18
b3lypvtz=-202794.5403835
C       2.84086251     -0.52737001     -0.36498104
C       1.58353367     -0.58403056      0.49853274
N       0.45818256      0.15591269     -0.06396696
C       0.52299943      1.60539832      0.00176025
C      -0.79201696     -0.42113555      0.00444134
N      -1.87237553      0.25267479     -0.00981596
N      -3.06615760     -0.50623918      0.00939546
H       3.63425793     -1.12270422      0.09042135
H       3.21737479      0.49006661     -0.47293062
H       2.64080892     -0.92181535     -1.36180517
H       1.81022379     -0.22076279      1.51101651
H       1.27188572     -1.62357224      0.60809120
H      -0.20849281      2.03061392     -0.68152718
H       0.29559351      1.98181203      1.00736857
H       1.51798977      1.94076151     -0.28403428
H      -0.78057666     -1.51409738      0.03500194
H      -3.80894778      0.11673038     -0.27693941
H      -3.03424127     -1.26664697     -0.66622873
