16
b3lypvtz=-202061.9191006
C       3.28166232      0.27290883     -0.02859075
C       2.00134648     -0.49553438      0.03358481
N       0.86175001      0.07154799     -0.02617813
C      -0.31108541     -0.65581637      0.02613454
C      -1.50226516     -0.00429262      0.00712792
N      -2.72867217     -0.64877805     -0.11336790
N      -1.60328899      1.37367835      0.10383782
H       3.07868955      1.33846310     -0.12500176
H       3.89332263     -0.04863392     -0.87767308
H       3.88510765      0.10730645      0.86968170
H       2.08418418     -1.58643035      0.13385836
H      -0.28729102     -1.74286285      0.09184970
H      -3.43907058     -0.28679308      0.50805471
H      -2.67054185     -1.65447855     -0.06940496
H      -2.26809042      1.77987568     -0.53981144
H      -0.69191123      1.80902876      0.04954747
