18
b3lypvtz=-205220.98332437
C      -2.74504160     -0.18250218      0.51979850
C      -1.51452327     -0.69933539     -0.22556754
C      -0.24333992      0.09988334      0.04988052
C      -0.28300838      1.53171974     -0.46949485
O       0.82347452     -0.62624815     -0.60440811
C       2.09403481     -0.51930950     -0.14979619
N       2.58628924      0.13029011      0.81360670
H      -3.60134936     -0.83237690      0.33733661
H      -3.02560004      0.82267816      0.20293469
H      -2.57559892     -0.15770245      1.59873132
H      -1.69740898     -0.70130009     -1.30327461
H      -1.32109464     -1.73550485      0.05897680
H      -0.05449212      0.09528387      1.12844820
H       0.66362751      2.04206636     -0.29500960
H      -0.47934152      1.53454891     -1.54282256
H      -1.06831862      2.10226305      0.02675645
H       2.73748837     -1.13439691     -0.77416724
H       1.90213491      0.67583289      1.33203592
