20
b3lypvtz=-205964.96592985
C      -1.86731079     -0.98278644      0.55155943
N      -1.28618119      0.01077695     -0.33770623
C      -2.21059056      1.10943784     -0.56512333
C       0.01233703      0.49692922      0.11902327
C       1.10911252     -0.56623502      0.09741714
C       2.48385776      0.02945748      0.34663309
O       3.42783743     -1.03938482      0.38088148
H      -2.04933872     -0.59151590      1.56900168
H      -2.82184491     -1.31956471      0.14572056
H      -1.21761827     -1.85236869      0.63453310
H      -1.78831136      1.80734350     -1.28930445
H      -2.44752974      1.67408919      0.35453429
H      -3.14719443      0.72557060     -0.97170023
H      -0.05989171      0.93396145      1.13358297
H       0.30113925      1.31347215     -0.54835992
H       0.93218759     -1.32922652      0.85742665
H       1.10460239     -1.06844347     -0.87211234
H       2.73327952      0.74148150     -0.45042747
H       2.48873148      0.58034142      1.29610365
H       4.30282670     -0.67323575      0.53621664
