19
b3lypvtz=-195149.52250207
C       2.22299627     -0.97668703     -0.54361385
C       1.38811169     -0.18310653      0.12800731
O       1.69228952      1.10771034      0.47710346
C       0.01584453     -0.58005524      0.58893397
C      -1.14949610     -0.13678834     -0.32704366
C      -2.45109343     -0.79503931      0.14217321
C      -1.30994537      1.38382114     -0.40567053
H       3.19971926     -0.63849135     -0.86732046
H       1.94260153     -1.99059981     -0.78382062
H       2.57182454      1.32542903      0.14813496
H      -0.00802254     -1.66709979      0.67460614
H      -0.14436901     -0.17306313      1.59204869
H      -0.92585267     -0.50814765     -1.33222966
H      -2.36963847     -1.88386586      0.15176712
H      -3.28259271     -0.52724477     -0.51219708
H      -2.70928051     -0.47104497      1.15400443
H      -1.52960679      1.80180552      0.58033871
H      -2.13590971      1.64677674     -1.06970063
H      -0.40854302      1.87011202     -0.77446053
