16
b3lypvtz=-204440.75380758
C       1.75711602      1.20078407     -0.23224394
C       1.40091734     -0.23392994      0.11672713
C       0.29348651     -0.42445758      1.18789520
C      -0.61763394     -0.91559310      0.04727550
C      -1.70646534      0.03491856     -0.39096948
O      -2.18186080      0.91417634      0.27993997
N       0.54886080     -0.95592244     -0.87801243
H       2.37342391      1.23873350     -1.13372032
H       0.86401089      1.80593616     -0.40123709
H       2.32729354      1.66197230      0.57734986
H       2.31490955     -0.79610145      0.32121012
H       0.51810974     -1.18533516      1.93121239
H      -0.05380935      0.47946484      1.68378160
H      -1.08032772     -1.90100777      0.18273428
H      -2.05366268     -0.13020032     -1.43572829
H       0.41637953     -0.47075900     -1.76009648
