12
b3lypvtz=-249525.38910795
C      -0.45027727      1.54938082     -0.28580243
C      -0.35288193      0.06582127     -0.31542143
N      -1.21406780     -0.81129696     -0.01773661
O      -2.42290229     -0.24439327      0.40882026
O       0.83460740     -0.47223180     -0.83012400
C       1.94126925     -0.43382069     -0.04838939
O       2.00690988      0.00618387      1.05972588
H       0.28311799      1.95396111      0.41239783
H      -1.44609199      1.85542850      0.01893189
H      -0.23219728      1.95190676     -1.27671515
H      -2.95725260     -1.02285839      0.59420699
H       2.77207464     -0.87674223     -0.60993685
