12
b3lypvtz=-223843.91475555
N      -2.13246752      0.17314862      0.01822297
C      -0.95256291     -0.31620558      0.00216247
N      -0.57324064     -1.62089596     -0.01843245
C       0.17677241      0.70159334     -0.00485409
N      -0.04157989      1.95167737     -0.00926800
C       1.63069194      0.32784356     -0.00266214
O       2.07836881     -0.79585685      0.01468371
H      -2.85721689     -0.54058681      0.02078786
H       0.40684970     -1.85834361      0.00604038
H      -1.26508896     -2.34810289      0.01376375
H      -1.05844815      2.10033367     -0.00621468
H       2.28388812      1.21643915     -0.01629879
