16
b3lypvtz=-181136.11437105
C      -2.39213240      0.13697858      0.23239508
C      -1.23726256      0.64968436     -0.19387141
N      -0.00010357     -0.00009507     -0.21014477
C       1.18113793      0.74654799     -0.19352812
C       1.31432941      2.00300347      0.23291757
C       0.05597176     -1.39637005     -0.19332115
C       1.07800735     -2.13973093      0.23229280
H      -3.30100887      0.70852207      0.12037747
H      -2.46789561     -0.83650038      0.69471375
H      -1.19104765      1.65156987     -0.60102692
H       2.02591175      0.20577761     -0.60044317
H       2.26366663      2.50442780      0.12094822
H       0.50921420      2.55522398      0.69546982
H      -0.83504280     -1.85776837     -0.59931151
H       1.03752347     -3.21266118      0.12081415
H       1.95922896     -1.71819673      0.69375618
