14
b3lypvtz=-203677.70827377
C       2.88825402     -0.13734162     -0.71881222
C       1.93218262     -0.26882630     -0.00765849
C       0.76439766     -0.42084094      0.86512284
N      -0.46659315      0.10245365      0.29565634
C      -0.58119476      1.53736932      0.09678630
C      -1.46389386     -0.73737101     -0.10141529
O      -2.51245641     -0.39883209     -0.60691292
H       3.73298670     -0.02732906     -1.35246411
H       0.61374565     -1.47928621      1.08764385
H       0.96479807      0.07611227      1.82019537
H      -1.55430667      1.73754219     -0.34198578
H      -0.49722644      2.06300847      1.05124900
H       0.20208802      1.89869154     -0.57213489
H      -1.21768044     -1.79492522      0.09991699
