15
b3lypvtz=-191216.94042085
C       2.92007668     -0.31342984     -0.07806885
C       1.66689298     -0.75071123      0.06099782
C       0.46579727      0.07477349      0.02984123
N       0.60297459      1.44481317     -0.05163621
C      -0.75896861     -0.52208116      0.02197894
N      -1.90372517      0.24578181      0.02511584
C      -3.05184905     -0.30216272     -0.05020739
H       3.15292033      0.72601670     -0.26886193
H       3.75715209     -0.99559957     -0.02990765
H       1.48787323     -1.80830537      0.21531818
H       1.37122782      1.84225696      0.46467909
H      -0.27069547      1.93705974      0.06886657
H      -0.82854086     -1.60787771     -0.00371685
H      -3.19191750     -1.38485769     -0.13680502
H      -3.94108533      0.31931542     -0.02858677
