13
b3lypvtz=-234667.51254345
C      -1.98562175     -0.32156036     -0.59678585
N      -2.86691721     -1.00785952     -1.19955572
N      -0.64730675     -0.60675398     -0.77178547
C       0.40803087      0.04429306     -0.19045686
N       1.61299453     -0.33258039     -0.44598996
N       2.53161701      0.51947574      0.29430735
O       0.08126625      1.05237773      0.62218217
H      -2.16415213      0.51153102      0.07968519
H      -3.79741036     -0.67536996     -0.96762802
H      -0.41175694     -1.37050858     -1.38835140
H       3.10549533     -0.10073862      0.85723957
H       3.16154696      0.92393989     -0.39161385
H       0.97221418      1.36375397      0.91736980
