14
b3lypvtz=-201259.80991604
C      -1.90005497      0.93042242     -0.53381024
C      -1.08176435      0.00265344     -0.03439875
C      -1.53350619     -1.39204416      0.30582579
C       0.35092974      0.33243398      0.17210207
N       0.86298374      1.41119510      0.58920963
N       1.26273274     -0.79075078     -0.09668329
N       2.40856945     -0.51227874     -0.44970502
H      -1.54552941      1.91274999     -0.81771232
H      -2.94908861      0.72291256     -0.69697150
H      -2.60601060     -1.49547096      0.14851406
H      -1.00991818     -2.12876097     -0.30349269
H      -1.30802636     -1.63552544      1.34636616
H       0.15549183      2.10874335      0.81015512
H       2.53083817      0.52504820     -0.49725501
