14
b3lypvtz=-180380.85489321
C       1.84611590      0.76909464      0.21103362
C       0.76139240      0.07059260     -0.06634360
C       0.32767595     -1.37104415      0.11836603
C      -1.14962378     -0.88748359      0.05409754
C      -0.64247118      0.47722930     -0.52411875
C      -1.21078133      1.71145316     -0.01509736
N      -1.65595806      2.68800076      0.40156851
H       2.73722133      0.29231802      0.59919636
H       1.87592338      1.84256053      0.07325535
H       0.59483094     -2.00306205     -0.73136795
H       0.64904974     -1.86643296      1.03313367
H      -1.83545648     -1.44368013     -0.58004222
H      -1.58702928     -0.76195822      1.04149245
H      -0.71088953      0.48241209     -1.61517364
