16
b3lypvtz=-227719.7509228688
C      -0.08035069     -0.38097003      0.82163554
C       0.77398049      0.35177504     -0.27962567
C       1.82004090     -0.55708682     -0.84598533
O       1.64984384     -1.34906945     -1.74284503
O       3.00403234     -0.46383565     -0.18536507
C      -1.31038683      0.32911057      1.32512792
N      -2.28919463      0.46223442      0.14336398
H      -3.10082180      0.97988252      0.46552736
H      -1.96787786      0.90295184     -0.74386130
H      -2.61514486     -0.46968339     -0.10067051
H      -0.33960013     -1.37406271      0.43443872
H       0.57247094     -0.55998746      1.67777348
H       1.22889418      1.23875130      0.15826730
H       0.14149582      0.65253732     -1.11828726
H       3.58856168     -1.13047640     -0.57587556
H      -1.07594339      1.36792888      1.58308004
