16
b3lypvtz=-227736.77159652
N      -0.54636172      1.55875933      0.51461466
C      -0.91853810      0.55752066     -0.46203359
C      -1.73964373     -0.66973986     -0.11528288
C      -0.27022405     -0.79774217     -0.39371830
O       0.54977119     -1.11628297      0.69684383
C       1.89300394     -0.65731778      0.57120017
O       2.10069887      0.61785654      1.09695214
H      -1.23058996      2.30597460      0.53771335
H      -0.51432089      1.15136005      1.44278645
H      -1.04881299      0.97866508     -1.45064540
H      -2.02887552     -0.77942869      0.92171500
H      -2.44493124     -1.06908023     -0.83168264
H       0.03636851     -1.26315894     -1.32632802
H       2.18393823     -0.71384151     -0.48664440
H       2.50195413     -1.34062469      1.16003165
H       1.47666332      1.23718059      0.67957799
