12
b3lypvtz=-226250.16946163
C      -2.22558512      1.07435456      0.27984593
C      -1.33891038      0.13636238      0.60653148
N      -0.05548780      0.14096890      0.06054545
C       0.77471243     -0.76624180      0.38628916
C       2.15040161     -0.74855383     -0.20817314
O       2.97565564     -1.57991875      0.06168059
O       2.37450162      0.26511151     -1.05692387
H      -3.21976145      1.07156772      0.70238512
H      -1.96658643      1.85945036     -0.41703732
H      -1.58799687     -0.65953697      1.30710246
H       0.56644266     -1.58114391      1.08196830
H       1.55261410      0.78737984     -1.09821415
