13
b3lypvtz=-213765.6648706
C       2.50530030      0.26735565      0.00000104
N       1.44772715     -0.72280821     -0.00000572
C       0.26277589     -0.29265254      0.00000159
N      -0.26769427      0.98780489      0.00001433
H       0.28750843      1.82165644     -0.00003733
C      -1.66126094      0.91693382     -0.00000150
C      -1.97279336     -0.37925155     -0.00000324
O      -0.82331130     -1.14413745      0.00000103
H       2.47813239      0.91729785      0.88702351
H       2.47813830      0.91730399     -0.88701749
H       3.47042862     -0.23651642      0.00000143
H      -2.29058522      1.78758038      0.00000091
H      -2.90738798     -0.90617885     -0.00000555
