14
b3lypvtz=-250321.91785702
N      -0.90332337      1.16800903      0.17180394
C      -0.09884910      0.12194935     -0.45204433
C      -0.60650019     -1.24475413      0.05691329
O      -1.99098883     -1.36300823     -0.17097204
C       1.41035365      0.19439524     -0.26351882
O       2.20829915     -0.39419185     -0.94544311
O       1.77741601      0.96183516      0.79224879
H      -0.84575155      2.03707407     -0.34235653
H      -0.58288816      1.35556081      1.11444308
H      -0.27495605      0.14674392     -1.52794566
H      -0.36713009     -1.33941459      1.12640939
H      -0.10320811     -2.04995257     -0.47612859
H      -2.36555853     -0.50081312      0.06291487
H       2.74308516      0.90666692      0.85367571
