20
b3lypvtz=-182667.04452817
C      -0.81235666     -0.69174352      1.36465506
C      -0.63038346     -0.02138699      0.00212221
C      -1.70839609     -0.48512377     -0.96838809
C      -0.41045316      1.51713042      0.13959119
C       1.12083334      1.28922065      0.08508684
C       0.84147735     -0.11335424     -0.52370420
N       1.61573776     -1.29345044     -0.19012378
H      -1.80159180     -0.46409237      1.76802049
H      -0.72225570     -1.77604219      1.28123106
H      -0.07763967     -0.34858195      2.09646073
H      -1.60752174      0.00885915     -1.93719787
H      -1.64192954     -1.56332327     -1.13342835
H      -2.70898361     -0.26762302     -0.58534009
H      -0.77526994      2.05898734     -0.73384472
H      -0.81329380      1.99127267      1.03472715
H       1.55917315      1.21183827      1.08167249
H       1.72025778      1.98569923     -0.50168569
H       0.82222448     -0.03715123     -1.61312555
H       2.48742764     -1.31739914     -0.70469742
H       1.85002765     -1.31494760      0.79513454
