16
b3lypvtz=-202050.5430692
N      -1.23978928     -1.47672787     -0.06757397
C      -0.96780153     -0.22709731     -0.02097358
N      -1.85579938      0.81383207      0.05236356
C       0.48080536      0.21076070      0.00311824
N       0.68499661      1.64632736      0.00729978
C       1.44561272     -0.69383282      0.74339375
C       1.45582951     -0.66137209     -0.75288485
H      -2.24329255     -1.64690716     -0.06869576
H      -1.47687954      1.73056960     -0.12763342
H      -2.81944803      0.64087115     -0.17289099
H       1.34566299      1.93952278     -0.69766619
H       1.00226893      1.98536161      0.90568928
H       2.25515323     -0.20664160      1.27060926
H       1.01986745     -1.56536605      1.21780463
H       1.03508298     -1.50993129     -1.27097693
H       2.27575753     -0.15785307     -1.24873179
