14
b3lypvtz=-180406.29257734
C      -2.70940743      0.31333129     -0.00000266
C      -1.65174659     -0.50165292      0.00001114
C      -0.25664247     -0.11681390      0.00000285
C       0.38438484      1.11229771     -0.00002206
C       1.77796831      0.87917075      0.00003492
C       1.96911560     -0.48509442     -0.00003220
N       0.73715925     -1.07403726     -0.00000423
H       0.57051730     -2.06459187      0.00001673
H      -2.60596210      1.39056636     -0.00006422
H      -3.71507253     -0.08171247      0.00004478
H      -1.83386707     -1.57356353      0.00002906
H      -0.10407283      2.07185991     -0.00001989
H       2.55677712      1.62281629      0.00006166
H       2.87121259     -1.07134294     -0.00004891
