12
b3lypvtz=-226209.64931748
C      -2.37597794      0.17566174     -0.80001876
C      -1.05072867      0.16148752     -0.69164172
C      -0.39208946     -0.25521591      0.57344825
O      -1.00843875     -0.60441700      1.56432837
C       1.09382976     -0.24609159      0.63541425
N       1.78110666      0.11208867     -0.37491576
O       3.14086787      0.05551742     -0.12543478
H      -2.99759174     -0.11747696      0.03635848
H      -2.86634070      0.47684977     -1.71572892
H      -0.40905234      0.45015770     -1.51218968
H       1.55074056     -0.55568669      1.57225559
H       3.53357475      0.34722532     -0.95607531
