15
b3lypvtz=-214529.27828793
C       3.05941033     -0.27523571     -0.00005680
C       1.57333586     -0.38398102     -0.00034618
N       0.83349418      0.65060224      0.00033148
C      -0.57124577      0.51588632     -0.00000802
N      -1.35995839      1.50798099     -0.00010233
O      -1.02751162     -0.75420157     -0.00006307
C      -2.44963146     -0.91987214     -0.00033278
H       3.47378137     -0.78253048     -0.87599520
H       3.37323740      0.76610299      0.00062252
H       3.47347518     -0.78356311      0.87543078
H       1.14887404     -1.39031256     -0.00114995
H      -0.80928636      2.36168161      0.00004884
H      -2.61937407     -1.99357821     -0.00043072
H      -2.88869462     -0.46070222      0.88451222
H      -2.88838206     -0.46058314     -0.88526980
