11
b3lypvtz=-236289.6715590165
C      -1.43865426     -0.28157458     -0.14795940
C       0.04590642     -0.40487993     -0.08083675
C       1.01542717      0.53388682      0.17382350
O       2.21197279      0.00582657      0.13918150
N       1.96060744     -1.45208265     -0.17781633
N       0.73076587     -1.57205292     -0.27930889
O       0.94769539      1.83967685      0.43947532
H      -1.87056856      0.05187148      0.79925174
H      -1.76251910      0.41135924     -0.92893283
H      -1.86687241     -1.25540473     -0.37729764
H       0.02623927      2.12337385      0.44041978
