17
b3lypvtz=-194391.13547309
C      -2.35836695     -0.94364391     -0.15700606
C      -1.37560981     -0.12402052     -0.50853045
C      -0.29408658      0.38811592      0.41105527
C      -0.26864085      1.92015392      0.45241608
C       1.04771580     -0.17724278     -0.08917394
C       1.46670821     -1.51721162      0.47012855
O       1.71660662      0.41697701     -0.90231469
H      -2.45724615     -1.31413800      0.85685777
H      -3.10616798     -1.26705640     -0.86903747
H      -1.31003491      0.22943202     -1.53378859
H      -0.48055418     -0.01098460      1.41157773
H      -0.04819534      2.32472514     -0.53413671
H       0.50192501      2.27806991      1.13649989
H      -1.23237673      2.30629460      0.78419667
H       2.32605841     -1.89906910     -0.07542401
H       1.73157103     -1.40070382      1.52479254
H       0.64181440     -2.23025678      0.42478441
