17
b3lypvtz=-191964.58671529
N      -2.81690554     -0.31951217     -0.30096153
C      -1.76059207      0.35114866     -0.10000724
C      -0.60425469     -0.00643042      0.79837849
C       0.74792189      0.14303586      0.11313770
N       1.04703248      1.52485159     -0.20356774
C       1.84667559     -0.82892547      0.48292536
C       1.17054053     -0.90385970     -0.87023363
H      -2.80706685     -1.18513348      0.24551967
H      -1.65378309      1.29734038     -0.63167230
H      -0.62100231      0.65863401      1.67098469
H      -0.73152746     -1.02492860      1.17204004
H       1.36821613      2.02419475      0.61872903
H       1.77038289      1.59778792     -0.90682625
H       2.85742236     -0.44437529      0.51521098
H       1.63998912     -1.61067002      1.20210151
H       0.49717332     -1.72764507     -1.06408879
H       1.73629071     -0.58803694     -1.73721398
