15
b3lypvtz=-214542.73275621
C       2.62852269     -0.16666092     -0.00014566
N       1.23830336     -0.54775423     -0.00180947
C       0.21542935      0.34216041     -0.00014063
N       0.25483529      1.62367711      0.00045981
C      -1.15071760     -0.33740879      0.00092530
C      -2.36512213      0.54483203     -0.00127060
O      -1.21181216     -1.54930554      0.00294213
H       2.88497027      0.42258259      0.88609772
H       2.88626893      0.42447551     -0.88469966
H       3.24366636     -1.06346974     -0.00075740
H       0.96872205     -1.51840984      0.00055650
H       1.20853214      1.98122818     -0.00026072
H      -2.34607724      1.21002313      0.86236809
H      -3.25860884     -0.07380108      0.00787372
H      -2.35373347      1.19273018     -0.87833213
