17
b3lypvtz=-217659.36525372
C      -2.98659961      0.06737910     -0.25684275
O      -1.73148179      0.30481844      0.34358269
C      -0.72114747     -0.57431321     -0.11025279
C       0.57741566     -0.21140603      0.57368909
C       1.25595063      1.08213891      0.08538921
O       2.34590641      0.33611878     -0.51146248
C       1.83330899     -0.90806165      0.01510194
H      -2.94346074      0.19486781     -1.34580099
H      -3.35154788     -0.94477864     -0.04097145
H      -3.68702360      0.79081880      0.15626517
H      -0.60839059     -0.49401512     -1.20190282
H      -0.99231111     -1.61676333      0.11518491
H       0.45329535     -0.27945273      1.65321251
H       1.61073094      1.75045127      0.87372941
H       0.69994090      1.66076413     -0.65538600
H       2.50194138     -1.33706801      0.76610412
H       1.66356855     -1.64612849     -0.77447177
