16
b3lypvtz=-227773.24667655156
C      -1.03752753      1.12362361      0.06278409
N      -0.33689470     -0.14829157      0.24180642
C      -1.24633880     -1.28424500      0.12346550
C       0.83394589     -0.25139396     -0.62565254
C       2.06163160      0.43300138     -0.01678273
O       3.02992249      0.74103019     -0.65391105
O       1.96850139      0.61434505      1.31105008
H      -0.34645649      1.95469664      0.20253677
H      -1.48622033      1.21360430     -0.93750628
H      -1.83039595      1.21356147      0.80504829
H       1.07372278      0.29368212      1.55329747
H      -2.04558383     -1.18739149      0.85840724
H      -0.71015657     -2.21123398      0.32449200
H      -1.70697680     -1.35768186     -0.87289855
H       0.67722640      0.15589042     -1.63106120
H       1.10160044     -1.30319733     -0.74507550
