17
b3lypvtz=-194382.06354352
C      -2.25889885      1.09095942      0.26103949
C      -1.58525166     -0.04191272      0.03659597
O      -2.19876881     -1.24107367     -0.22970437
C      -0.12697409     -0.20756191      0.06389824
C       0.76295852      0.74073041     -0.22619716
C       2.25643486      0.60493589     -0.18278882
C       2.80207646     -0.76003409      0.22617599
H      -3.33882760      1.13017453      0.19707367
H      -1.74136783      1.99940703      0.52396074
H      -3.15354560     -1.12279545     -0.18180618
H       0.20099226     -1.20768717      0.32192094
H       0.39789029      1.71650599     -0.53334490
H       2.64687932      1.37372013      0.49498332
H       2.65258764      0.87899960     -1.16764978
H       2.47429376     -1.03702334      1.22947292
H       3.89251774     -0.75119062      0.22335795
H       2.47457161     -1.54262405     -0.46009301
