20
b3lypvtz=-205971.36117383
C      -3.00329011      0.18251912     -0.47469110
O      -1.70552354     -0.36327433     -0.41115860
C      -1.03181196     -0.05234113      0.80040482
C       0.37042356     -0.63163089      0.73898915
C       1.28070242      0.05050982     -0.28977454
C       2.57567255     -0.74268671     -0.49608134
N       1.49859781      1.44952270      0.11063071
H      -2.98576386      1.27765049     -0.40668899
H      -3.64352522     -0.20208990      0.33043317
H      -3.43341849     -0.10528902     -1.43292707
H      -0.98269726      1.03422771      0.93564385
H      -1.58348462     -0.47953354      1.64962765
H       0.82697668     -0.54991748      1.73176498
H       0.29755148     -1.69769438      0.51110101
H       0.73770400      0.08212472     -1.23698838
H       2.37397765     -1.75616580     -0.85072372
H       3.13574459     -0.82125600      0.44044217
H       3.21922110     -0.25240216     -1.22942775
H       2.10764886      1.48865418      0.92230091
H       1.97026037      1.95925062     -0.62734095
