16
b3lypvtz=-227777.48922418
C       2.05224904     -0.58778335     -0.58226637
N       1.40205594     -0.21841001      0.67538545
C       0.14156774      0.49653246      0.56208122
C       0.27480436      1.80244922     -0.22730487
C      -1.00608310     -0.38708513      0.05272382
O      -0.95589880     -1.58369383     -0.07551780
O      -2.13794613      0.31820583     -0.18649905
H       1.40432896     -1.12724163     -1.28430676
H       2.44176551      0.29995134     -1.08102185
H       2.90399302     -1.22714583     -0.35192248
H       1.24900007     -1.05652408      1.22137738
H      -0.16292984      0.76462455      1.58073755
H       0.46083559      1.61991695     -1.28557170
H      -0.63472200      2.39279771     -0.14579028
H       1.10852041      2.37711581      0.17469856
H      -2.81607177     -0.32216601     -0.45025283
