11
b3lypvtz=-189696.25363424
C       2.46444748     -0.00000498      0.11450626
C       1.26750154     -0.00000254     -0.44767666
C      -0.02400985      0.00000015      0.35878267
C      -0.81840926      1.20927726      0.08805517
N      -1.40736777      2.17220635     -0.12703990
C      -0.81841441     -1.20927355      0.08805510
N      -1.40737706     -2.17220009     -0.12704002
H       2.59646782     -0.00000516      1.18945273
H       3.36171756     -0.00000681     -0.48862718
H       1.14298678     -0.00000224     -1.52296031
H       0.22191416     -0.00000039      1.42462512
