9
b3lypvtz=-235551.21271236
N       2.92876134     -0.47774432     -0.00026641
C       1.81816029     -0.17635202     -0.00000528
C       0.44542655      0.29655945      0.00033833
N       0.09534636      1.50180892      0.00012733
O      -0.39789782     -0.78411304      0.00020115
C      -1.78567579     -0.70161258     -0.00001665
O      -2.45221914      0.27472893     -0.00029521
H       0.90253860      2.12047484     -0.00001240
H      -2.14224439     -1.73788318      0.00010813
