12
b3lypvtz=-179572.90092227
C       3.26604378      0.55678491      0.20334530
C       2.31971272     -0.10147409     -0.12113883
C       1.17568089     -0.92086025     -0.52396323
C      -0.11980451     -0.28800521     -0.28238615
C      -1.19591660      0.21627478     -0.09110687
C      -2.46271060      0.83760628      0.14665092
N      -3.61086014      0.34880971     -0.10807047
H       4.10103325      1.14464950      0.49284070
H       1.21023700     -1.87845884      0.00646816
H       1.26125155     -1.16577272     -1.58802954
H      -2.42327825      1.83182027      0.59235784
H      -3.52138911     -0.58137433     -0.52106782
