18
b3lypvtz=-181888.79868805
C      -2.73738578     -0.27043951      0.16792711
C      -1.60255132      0.07594246     -0.42799548
C      -0.29396690      0.24676597      0.26605352
C       0.47345745      1.59128307      0.13380971
C       1.73844988      0.72565404     -0.03722994
N       0.86895746     -0.41630516     -0.37133561
C       1.24302206     -1.73936261      0.07187242
H      -2.77931232     -0.47000554      1.23274414
H      -3.66486419     -0.36373793     -0.38185950
H      -1.58321414      0.26001995     -1.49837826
H      -0.39347223     -0.03155983      1.32695650
H       0.20555857      2.12903697     -0.77389656
H       0.43102877      2.26483760      0.98579819
H       2.45626447      1.00194209     -0.81154941
H       2.27589373      0.59117990      0.91325823
H       2.13714705     -2.07023275     -0.45998500
H       1.45081624     -1.78664837      1.15510570
H       0.44100719     -2.44432534     -0.15271377
