16
b3lypvtz=-204463.57527293
C      -2.61282421     -0.28483278      0.08390270
N      -1.54140215      0.69457272      0.00054919
C      -0.34481582      0.31891152     -0.05801988
C       0.86195621      1.22367206     -0.16636172
C       2.01226056      0.32347481      0.29440040
C       1.51062466     -1.06022778     -0.12303959
O       0.07560937     -0.99298138     -0.02948158
H      -3.32393773      0.03698178      0.84646874
H      -2.27964590     -1.29955005      0.31336542
H      -3.15492353     -0.30644470     -0.86520995
H       0.98776633      1.52303780     -1.21028211
H       0.72600659      2.12651904      0.42244618
H       2.97182939      0.57075391     -0.15646910
H       2.12296359      0.37166535      1.37868626
H       1.84858587     -1.86869572      0.52272543
H       1.78324976     -1.29692757     -1.15549138
