16
b3lypvtz=-181097.56856622
C      -1.94263726      0.50820975      0.16195357
N      -0.53834422      0.44924800      0.60568435
C       0.50139198      0.78534485     -0.46530422
C       0.30341896     -0.64535873     -1.05539087
C       0.13327871     -0.91885100      0.47127487
C       1.52488210     -0.55861976      0.99047996
C       1.77272365      0.58875779      0.35992223
H      -2.05917931      1.03538642     -0.78913682
H      -2.38580400     -0.48450248      0.04236862
H      -2.53181802      1.04339820      0.90840464
H       0.36449989      1.69947184     -1.03788057
H       1.13736364     -1.11332391     -1.57877231
H      -0.62005434     -0.75763422     -1.62322790
H      -0.38774599     -1.78306142      0.87610034
H       2.10939244     -1.10284310      1.71455003
H       2.61863175      1.25437777      0.41897408
