16
b3lypvtz=-204355.34242632
C       0.68610683      0.04034328      0.33637790
C       0.34976559     -0.51041526     -1.02970570
C       1.48881339     -0.85358922     -2.07006694
C       1.60315549     -2.14711033     -1.43490193
N       0.11423318     -2.05193844     -1.00850403
C       2.74372682     -2.37373569     -2.48372216
O       2.94323286     -0.89760647     -2.44277430
H      -0.15379652     -0.11029341      1.01509991
H       0.88552309      1.11119222      0.26831160
H       1.56084598     -0.44019932      0.77284703
H      -0.49238203      0.02936362     -1.46492996
H       0.96756625     -0.91679666     -3.03237806
H       2.13300829     -2.06873061     -0.48890211
H      -0.48565581     -2.27222629     -1.80129163
H       3.63785135     -2.90414140     -2.16174897
H       2.42110525     -2.68781600     -3.47851065
