19
b3lypvtz=-192730.42540044
C       1.69394034      1.17670298     -0.04420518
C       0.84579444     -0.02148241     -0.49374862
N       1.45188816     -1.32520602     -0.20052990
C      -0.54599803      0.01209300      0.12793234
N      -0.51574819     -0.10456343      1.57455712
C      -1.60967901      0.83562595     -0.55998987
C      -1.65191053     -0.67615504     -0.60577871
H       1.21870825      2.12666672     -0.30217190
H       1.85341041      1.15068789      1.03557738
H       2.67389162      1.15295958     -0.52534501
H       0.71751051      0.04231777     -1.57876529
H       2.42866403     -1.32970290     -0.47124551
H       1.41881575     -1.46916876      0.80398441
H      -1.32119118     -0.60151761      1.92786705
H      -0.48470827      0.80085202      2.02622754
H      -2.33494955      1.33844916      0.06592914
H      -1.35368529      1.36647995     -1.46768472
H      -1.40748364     -1.17434795     -1.53325320
H      -2.41544483     -1.17583489     -0.02334804
