10
b3lypvtz=-251358.38531402
F      -1.88707884      0.63508191     -0.90591869
C      -1.41222986      0.00062567      0.23458171
C       0.07295107     -0.08991700      0.16115976
C       0.94513029      0.32636334     -0.78659343
O       2.18141828      0.01785023     -0.39932805
N       2.04671826     -0.63257451      0.87644116
N       0.82845147     -0.67067407      1.15406675
H      -1.72917304      0.57807291      1.10564602
H      -1.86520217     -0.99164385      0.28912173
H       0.81911453      0.82671538     -1.72917695
