12
b3lypvtz=-226239.92454744
O       2.62932855      0.55389918     -0.16074167
C       1.72279194      0.23894580      0.58101991
N       0.41719681      0.22932280      0.22663477
C      -0.76345449     -0.38623192      0.85524546
C      -1.43795373     -0.26533007     -0.52866029
O      -2.51707291     -0.53281758     -0.95215602
C      -0.15601467      0.34119852     -1.12260396
H       1.87693983     -0.05781550      1.63401311
H      -1.23356458      0.20621682      1.64306642
H      -0.62663800     -1.41480599      1.19874865
H       0.34280602     -0.27381480     -1.87558601
H      -0.25436477      1.36123273     -1.49898038
