18
b3lypvtz=-181878.94097857
C      -0.37063358      1.97781414     -0.84873185
C      -0.17639870      0.58581511     -0.32947942
C      -1.27100536     -0.26784127      0.34750485
C      -0.66522184     -1.53910566     -0.31599857
C       0.41419205     -0.65677208     -0.96138196
N       1.15607571      0.12766571      0.00317547
C       1.54010838     -0.37509555      1.31213974
H       0.48314575      2.27803335     -1.45570309
H      -0.46439411      2.69124459     -0.02477806
H      -1.27657855      2.05063920     -1.45442446
H      -1.30736193     -0.23552441      1.43784279
H      -2.26396738     -0.03814887     -0.03644352
H      -0.31470731     -2.33264167      0.34598598
H      -1.33505541     -1.97749529     -1.05389249
H       0.84469848     -0.80014609     -1.94500444
H       1.75927325      0.47327036      1.96201106
H       0.79292143     -1.00176218      1.81175451
H       2.45490910     -0.95994938      1.20542347
