13
b3lypvtz=-190438.57964609
C      -2.57760923     -0.55361477     -0.23803406
C      -1.50904349     -0.01715507     -0.11080576
C      -0.22748360      0.59132720      0.04513598
C      -0.11358611      1.90187084      0.29056941
C       0.99520101     -0.29262918     -0.03438341
N       2.15884420      0.08534374     -0.40080531
N       0.77391964     -1.60007388      0.30555970
H      -3.52457700     -1.01770586     -0.36013869
H      -0.98407201      2.53900574      0.34458858
H       0.85443397      2.35499595      0.45294342
H       2.15226489      1.04916872     -0.71640530
H      -0.04342306     -1.85027673      0.83185287
H       1.59067479     -2.17896271      0.40165056
