15
b3lypvtz=-216932.44089088
O      -3.45684240      0.63780660     -0.13384841
C      -2.53201193      0.02770342      0.33477379
C      -1.25270847     -0.29426365     -0.39587222
C      -0.01594261      0.21724017      0.35655161
C       1.29613121     -0.17927220     -0.33529267
C       2.50451754      0.25583017      0.45520114
O       3.38888939      0.95275737      0.03169897
H      -2.57672659     -0.34450001      1.38202018
H      -1.31091504      0.12328844     -1.40129042
H      -1.19260944     -1.38583594     -0.48392908
H      -0.02269133     -0.17310818      1.37895454
H      -0.06668176      1.30572447      0.43783416
H       1.36397238      0.24471498     -1.33735887
H       1.33858543     -1.27160076     -0.42433899
H       2.53493363     -0.11658489      1.50289628
