18
b3lypvtz=-205224.52603578
C      -2.69108187     -0.13725159      0.49470398
C      -1.66060416     -0.61467968     -0.51585879
O      -0.33540878     -0.63749369      0.02782134
C       0.41965560      0.50183943      0.02756673
N       0.10837897      1.65099038     -0.40439293
C       1.77294446      0.22317906      0.62483817
C       2.61747427     -0.73179904     -0.22712887
H      -3.69040796     -0.18588678      0.05823799
H      -2.50470939      0.89036806      0.80565088
H      -2.67398173     -0.77063337      1.38166263
H      -1.85574218     -1.64689407     -0.80365285
H      -1.67993504     -0.01091826     -1.42704732
H      -0.83316043      1.69803277     -0.78501075
H       2.27604606      1.18058894      0.74114794
H       1.62734930     -0.20680859      1.61894763
H       2.13019854     -1.70039736     -0.33313113
H       3.59261254     -0.89077077      0.23437902
H       2.78126181     -0.32042344     -1.22423366
