13
b3lypvtz=-213775.95293862
C      -0.84285987     -1.23894788      0.53596579
C      -0.36893270     -0.00476571     -0.16305518
C       0.86158994      0.52838531      0.02505932
C       1.84866149     -0.03791980      0.86471623
N       2.69770822     -0.47488820      1.51851890
O       1.16090266      1.74160236     -0.59432384
N      -1.24233668      0.57053475     -1.05078984
H      -1.71529390     -1.01565467      1.15649732
H      -1.14178982     -1.99349591     -0.19490122
H      -0.07117570     -1.65964802      1.17463384
H       2.04588864      1.69985211     -0.97195684
H      -1.00932983      1.49402494     -1.37755728
H      -2.22303247      0.39092073     -0.92280721
