17
b3lypvtz=-215270.08794823
C       1.90321379     -1.46062570      0.20604370
O       1.26382219     -0.30887218     -0.31223441
C       0.00269245     -0.01456533      0.26134860
C      -0.18620470      1.48668963      0.26019273
N       0.63802990      2.35480566     -0.14164436
C      -1.13269513     -0.74030566     -0.50382576
N      -2.46285515     -0.68723174      0.08907865
H       1.31778354     -2.37039670      0.03705209
H       2.85361775     -1.55782694     -0.31519556
H       2.09459682     -1.35916467      1.28042293
H      -0.02402799     -0.35218817      1.30955723
H      -1.14840085      1.82960116      0.64698033
H       1.48871035      1.88728621     -0.46677724
H      -1.18270622     -0.33116027     -1.51425580
H      -0.84652957     -1.78871152     -0.60788225
H      -2.46430018     -1.03238542      1.04106870
H      -2.83782699      0.25168063      0.10039041
