18
b3lypvtz=-205237.13506683
C       2.85858236     -0.48316515      0.07807751
C       1.79587729      0.23787126     -0.75345352
C       0.74665197      0.99413616      0.06863767
C      -0.16906677      0.11821725      0.93200811
N      -0.98385017     -0.81926290      0.16631487
C      -2.20859425     -0.50361235     -0.32379210
O      -2.76604471      0.56482219     -0.18079003
H       3.38890861      0.21541404      0.72929419
H       3.59898561     -0.96348933     -0.56331807
H       2.42966554     -1.26042244      0.71395413
H       2.29008375      0.95144786     -1.41726443
H       1.29356510     -0.47713612     -1.41200221
H       1.24799564      1.70622835      0.73210648
H       0.11553561      1.58354969     -0.59934517
H       0.40823657     -0.45594774      1.65777781
H      -0.85526452      0.75615322      1.48709946
H      -0.62323606     -1.73553757     -0.03732013
H      -2.66548456     -1.34472644     -0.87628557
