12
b3lypvtz=-252146.04187607
C      -1.12886566     -0.68486740     -0.02023898
C      -0.07531588      0.39433823     -0.05151344
N      -0.43542255      1.59701691     -0.22383104
C       1.34156262     -0.03294835      0.12506147
N       1.70416416     -1.21606809      0.28510261
F       2.21039844      1.01334760      0.09241641
O      -2.41687662     -0.16252788     -0.20298946
H      -1.05505736     -1.21389117      0.93718820
H      -0.89411152     -1.42341996     -0.79533505
H       0.35007207      2.24433787     -0.22797860
H       2.71299112     -1.31158109      0.38756651
H      -2.31353883      0.79626332     -0.30544861
