17
b3lypvtz=-191965.76369088
C      -2.42706339     -0.82690694     -0.35109695
N      -1.73391549      0.20990610     -0.17852099
C      -0.75366127      0.21164324      0.88948571
C       0.67722835      0.46834196      0.37875220
C       0.77713403      1.72974221     -0.47991608
N       1.12015161     -0.68221808     -0.39999309
C       2.17190626     -1.27689628     -0.04402917
H      -3.16660858     -0.84974901     -1.14877401
H      -2.32851462     -1.72977132      0.26494244
H      -1.00832483      1.02984301      1.56927508
H      -0.76425407     -0.72412035      1.46651791
H       1.30895728      0.59314906      1.27241021
H       0.17145215      1.62842816     -1.37765157
H       1.81278793      1.90734669     -0.77132424
H       0.42255952      2.59759278      0.07862719
H       2.52358331     -2.13443253     -0.61430285
H       2.77215679     -0.97684568      0.82567220
