10
b3lypvtz=-228051.06837614
C       2.95003061     -0.48203935     -0.34544693
C       1.82092481     -0.17970142     -0.06671613
C       0.51821651      0.22587415      0.32499318
N      -0.52358401     -0.19659864     -0.28926599
C      -1.77871572      0.23039040      0.13276699
N      -2.88123759     -0.09528727     -0.36442472
F      -1.78594549      1.08017628      1.18449846
H       3.94105603     -0.76114510     -0.60714982
H       0.46058669      0.91102799      1.17098772
H      -2.72143185     -0.73279703     -1.14034276
