18
b3lypvtz=-181876.06590587
C      -2.37500217     -0.65619325     -0.15696547
C      -1.73691428      0.01136213      1.03334876
C      -1.22701361      0.29527760     -0.35411086
C       0.11192184     -0.22448259     -0.81280700
N       1.18344884      0.72698744     -0.53271732
C       2.53859279      0.19505539     -0.53065261
C       1.87549637      0.58591428      0.74128778
H      -3.36292784     -0.33741257     -0.45845124
H      -2.18732430     -1.71237918     -0.30077810
H      -2.28982456      0.78609164      1.54602565
H      -1.12658820     -0.60174674      1.68299227
H      -1.47517375      1.26777146     -0.76073075
H       0.30460909     -1.20733142     -0.34985499
H       0.09395843     -0.38015555     -1.89553065
H       3.29741804      0.82751536     -0.97431041
H       2.66724985     -0.86788761     -0.71383536
H       2.14338911      1.50833583      1.24096831
H       1.56468435     -0.21672223      1.40274876
