14
b3lypvtz=-203617.43261907
C      -0.40528434      1.06824531     -0.04978571
C      -1.38743853      0.00125450     -0.80694916
C      -0.63232545     -1.10340603     -0.12022044
N      -0.59733902     -0.92172929      1.15650385
C       0.46297824      0.12992547      0.93774157
C       1.50535889     -0.63756531      0.12651205
O       0.57826240     -1.28967556     -0.79383799
H       0.18897429      1.67822914     -0.73293608
H      -1.03682854      1.72315936      0.54668816
H      -1.29867084      0.03040416     -1.88905042
H      -2.41388748      0.10930453     -0.47708466
H       0.79582320      0.61195248      1.85241374
H       2.05698195     -1.36108050      0.72848344
H       2.18339521     -0.03901828     -0.47847838
