16
b3lypvtz=-181134.41407138
C       2.84127054     -0.15654955      1.26387262
C       1.59589151      0.12448359      0.56596675
C       0.55664306      0.35155752      0.00156702
C      -0.64960315      0.65347950     -0.70520783
N      -0.58930922      1.83954867     -1.46799880
C      -1.76186571     -0.09538745     -0.59817793
C      -1.93328338     -1.29400046      0.27802731
H       2.76184893     -1.07287586      1.85214050
H       3.10285987      0.65614884      1.94517473
H       3.66848630     -0.28236817      0.56177238
H      -1.32280921      1.90932415     -2.15840132
H       0.31572449      2.00236850     -1.88341042
H      -2.62428726      0.20806514     -1.18482455
H      -2.72819691     -1.13960787      1.01503274
H      -2.21619369     -2.17630210     -0.30456749
H      -1.01717617     -1.52798443      0.81893429
