13
b3lypvtz=-213732.04803974
C      -1.84809309     -0.28584885     -0.73190534
C      -0.88857982     -0.08841015      0.17591240
O      -1.17778522     -0.11854390      1.50574968
C       0.51908979      0.20277767     -0.21865730
C       0.85974530      0.92728797     -1.29252665
N       1.64573992     -0.26725323      0.51857589
N       1.41191155     -0.71726705      1.65530113
H      -2.86166723     -0.48110887     -0.41347278
H      -1.63266560     -0.26175091     -1.78764254
H      -0.35569202     -0.35078414      1.97856177
H       1.90413289      1.03913516     -1.54666638
H       0.11849019      1.41727653     -1.90481938
H       2.30547333     -1.01561024      2.06178949
