13
b3lypvtz=-192797.3505785
C       2.38930364      1.24067704      0.53815769
C       1.34314604      0.72008640      0.25621938
C       0.09785369      0.12714415     -0.08024487
C      -0.05055598     -1.16081727     -0.88233360
C      -0.64188467     -1.08925918      0.47690989
O      -1.90269090     -0.42557374      0.45824529
C      -1.27156442      0.80484837      0.00186644
H       3.31441991      1.69543704      0.79029109
H      -0.70472657     -1.18223859     -1.74609503
H       0.86563834     -1.72885105     -0.96937442
H      -0.41493406     -1.74458972      1.30594897
H      -1.32061219      1.56664742      0.77989244
H      -1.70339283      1.17648913     -0.92948325
