12
b3lypvtz=-226242.23414625
N      -1.67584667      1.34085476      0.30014134
C      -1.41258468      0.12228194      0.09498275
O      -2.37743556     -0.84621971      0.12180087
C      -0.03825465     -0.34045572     -0.18908874
C       1.02336534      0.46645662     -0.25259346
C       2.36102059     -0.06963228     -0.54038516
O       3.36043265      0.60548055     -0.61108333
H      -2.66899530      1.47825943      0.47918566
H      -2.00155741     -1.71556480     -0.05420587
H       0.10419860     -1.40569027     -0.35474153
H       0.92301934      1.53257115     -0.09361161
H       2.40273775     -1.16834169     -0.69450092
