15
b3lypvtz=-216889.53173658
C       1.94550428      0.04593082      0.06472348
C       0.60817644     -0.10338756     -0.62261272
O       0.07535192     -1.46155915     -0.46033137
C      -1.02842747     -0.97049046      0.30968856
C      -1.86688498     -0.03081281     -0.51647172
C      -0.60532211      0.46523840      0.11859474
O      -0.61388271      1.59010578      0.92347477
H       2.30510929      1.07424842     -0.01330707
H       1.87963832     -0.22860579      1.11956256
H       2.67993751     -0.60802809     -0.40610203
H       0.67907662      0.16132676     -1.68128117
H      -1.38125586     -1.55918810      1.14442957
H      -1.94352957     -0.17447646     -1.58841108
H      -2.76282833      0.32502950     -0.02328787
H       0.02933666      1.47476873      1.63153135
