12
b3lypvtz=-254534.48609999
C      -1.21990413     -1.26720575     -0.70261846
C      -0.83230161     -0.37397285      0.20904271
O      -1.62310846     -0.10452608      1.28496191
C       0.43306204      0.39342405      0.16978191
O       0.56502853      1.24087770      1.24072587
C       1.37589708      0.31704495     -0.76718776
F       2.48152699      1.10225123     -0.64112540
H      -0.61108637     -1.49625155     -1.56175418
H      -2.16262142     -1.78007150     -0.59014329
H      -1.18657750      0.56043654      1.83243855
H       1.40219398      1.71491913      1.16833613
H       1.37799086     -0.30692587     -1.64265799
