16
b3lypvtz=-202044.50138916
N       2.52665009     -0.96360438      0.15430265
C       1.28154673     -0.76719091      0.27973819
C       0.54596535      0.53076804      0.06818202
N       0.94471566      1.45861375     -0.70482431
C      -0.76026810      0.69130301      0.80922932
C      -1.98000820      0.28122222     -0.03311397
N      -1.93044996     -1.13531247     -0.41431375
H       3.01299558     -0.10020307     -0.10890294
H       0.65720979     -1.60741889      0.58540157
H       1.81746729      1.20396922     -1.17450046
H      -0.74840088      0.09277768      1.72242425
H      -0.86340134      1.74223436      1.08047250
H      -2.87262534      0.43232398      0.57556829
H      -2.05127710      0.96254119     -0.88915656
H      -2.85376447     -1.46788631     -0.66147091
H      -1.35249312     -1.26790042     -1.23627588
