18
b3lypvtz=-181885.13826214
C       2.23195392     -0.23396287      0.09846548
C       0.89053408      0.11008453     -0.53968791
C       0.09337921      1.27656745      0.14682380
N      -1.22424038      0.65288736      0.46985801
C      -0.74899680     -0.67672927      1.02368897
C      -0.21733358     -0.95319174     -0.40264980
C      -1.45751010     -0.12782279     -0.81281748
H       2.92118410      0.61097971      0.03539149
H       2.12747133     -0.49006777      1.15462877
H       2.70467713     -1.08047550     -0.40424354
H       1.05606696      0.33217781     -1.59697568
H       0.56716112      1.62251368      1.06606602
H      -0.05901845      2.13548154     -0.50573716
H      -0.05157088     -0.60742090      1.85848650
H      -1.60388849     -1.29095464      1.30107506
H      -0.00795540     -1.95229236     -0.78454580
H      -2.39919050     -0.67082570     -0.75288174
H      -1.41795927      0.46511747     -1.72815699
