14
b3lypvtz=-180367.47835533
C       3.16953650      0.10264172     -0.02744414
C       2.04742558     -0.34136554     -0.01729569
C       0.72873764     -0.83622133     -0.00071170
C      -0.37055295     -0.03171208      0.03161200
N      -0.28371740      1.34276483     -0.01939353
C      -1.69992318     -0.63612931      0.05875579
C      -2.85878521      0.01035021     -0.07729389
H       4.16345673      0.47365469     -0.03932590
H       0.58447005     -1.90723287     -0.03507329
H      -1.00217123      1.85289106      0.46746116
H       0.64194816      1.72056500      0.11396878
H      -1.70531201     -1.70988889      0.20261062
H      -3.79966299     -0.52015489     -0.03567696
H      -2.91365469      1.07580241     -0.25917725
