16
b3lypvtz=-204420.48686427
C      -1.53588808     -1.15170612     -0.47405348
C      -0.59683068      0.00571477     -0.27600906
N      -0.98734256      1.19493438     -0.02895129
O      -2.39576170      1.27314916      0.05934342
C       0.86685129     -0.24565984     -0.33555665
C       1.87423266      0.82149802     -0.02258505
C       1.67356246     -0.30055651      0.95279208
H      -2.15120856     -1.29815540      0.41533116
H      -2.22353450     -0.94829762     -1.29648175
H      -0.98953074     -2.06950655     -0.68125659
H      -2.53552123      2.20952121      0.22863671
H       1.14863855     -0.97634577     -1.08393956
H       1.48850211      1.79414880      0.24190404
H       2.78344672      0.83198068     -0.60723640
H       2.43686890     -1.06154474      1.03954691
H       1.14361536     -0.07907447      1.86851551
