19
b3lypvtz=-195142.29944131
C       2.48647467      0.27176165     -0.10200073
C       1.20508755     -0.52766122     -0.03238969
C       0.23224744     -0.26926863      1.13149529
C      -0.81204144      0.05028405      0.03451163
C      -1.38665669      1.45581791      0.03665421
C      -1.89123197     -1.00615534     -0.14949435
O       0.21645204     -0.08611832     -0.99990481
H       2.95154671      0.15940644     -1.08295466
H       2.29323134      1.33241094      0.06570165
H       3.19550259     -0.07779808      0.65265958
H       1.42297036     -1.59105419     -0.18000179
H       0.50131937      0.58441001      1.75277593
H       0.00535676     -1.12136252      1.76967975
H      -1.91186295      1.65089736     -0.90034916
H      -0.59480967      2.19706889      0.14327724
H      -2.09520890      1.58273039      0.85848829
H      -1.45687407     -2.00636500     -0.16576496
H      -2.62216559     -0.96057627      0.66116391
H      -2.41536455     -0.84794906     -1.09366435
