10
b3lypvtz=-223084.86909263
N      -2.23794931     -0.14182044      0.00004763
C      -0.99442511      0.02609273     -0.00007792
N      -0.28916521      1.22151534      0.00002940
C       0.99492569      1.16725731      0.00025200
N       1.77914780      0.02276148      0.00021005
C       1.10171760     -1.06283940      0.00008150
O      -0.22405570     -1.16520365     -0.00000672
H      -2.69595321      0.76555428      0.00008040
H       1.54395118      2.10268767     -0.00004456
H       1.58198328     -2.03483933     -0.00009978
