11
b3lypvtz=-262013.08272096
O       2.27383298     -0.71261045     -0.05849610
C       1.57804688     -0.42965257      0.87813904
C       0.06751065     -0.22708042      0.75477226
O      -0.61799982     -0.23588991      1.74672885
C      -0.52688012     -0.00627515     -0.64133280
O      -1.88889033     -0.26536539     -0.65580705
O      -0.19508386      1.34320401     -0.90984988
H       1.95517597     -0.33852962      1.91367309
H      -0.06073420     -0.67548802     -1.36670621
H      -2.25727063      0.03583091      0.18747068
H      -0.32780752      1.51185660     -1.84859189
