16
b3lypvtz=-202017.5995309
C       3.45867662      0.14716409     -0.22023108
N       2.11391511     -0.39370756     -0.36028058
C       1.12134384      0.32880165      0.43117434
C      -0.22278860     -0.31734227      0.34578616
C      -1.35493922      0.30949382      0.02893473
N      -2.55954386     -0.41630892      0.01767566
N      -3.55041113      0.27925506     -0.28417955
H       4.16066832     -0.47349101     -0.77669877
H       3.49514326      1.15123426     -0.64808443
H       3.80809081      0.21705971      0.82230598
H       2.10900996     -1.37255641     -0.09959989
H       1.40946748      0.39622415      1.49767636
H       1.06631382      1.35623506      0.06300100
H      -0.28662545     -1.37668758      0.57655390
H      -1.40894282      1.36500495     -0.22611993
H      -4.36565015     -0.34802001     -0.26531491
