12
b3lypvtz=-223841.93147421
C       1.25887452      1.01639358     -0.65087524
N       1.80485999      1.99929914     -0.89630300
C       0.61551694     -0.26865141     -0.29024756
C      -0.89611175     -0.09672210     -0.24614235
N      -1.62568619     -0.59380557     -1.14368012
O      -1.25536488      0.63017346      0.84471123
N       1.09429838     -0.83604001      0.96690846
H       0.81204405     -0.97373860     -1.09565199
H      -2.61887228     -0.40639547     -1.00697883
H      -2.21448885      0.73297613      0.87524402
H       0.93570178     -0.18718814      1.72838670
H       2.08922829     -1.01630101      0.91462867
