18
b3lypvtz=-181884.2383257
C       2.18243284      0.87332870      0.32255498
C       1.59652062     -0.49358617      0.08140955
N       0.89664729     -1.13886113      1.20537877
C       0.13869720     -0.77850220     -0.00569947
C      -0.93359311      0.24984959      0.13045056
C      -1.73976292      0.65174331     -1.07704321
C      -2.37880322     -0.16028433      0.01745860
H       2.32865326      1.40541332     -0.62019294
H       3.15316739      0.78999858      0.81604448
H       1.53769400      1.47458216      0.96109454
H       2.22334240     -1.13849542     -0.52910094
H       1.08638797     -2.13425084      1.23724030
H      -0.13098890     -1.59475527     -0.67236959
H      -0.72150833      1.02820720      0.85028768
H      -2.02307869      1.68992832     -1.18137344
H      -1.52484370      0.15507175     -2.01428891
H      -2.59188821     -1.20178442     -0.18508283
H      -3.09907587      0.32239684      0.66323188
