21
b3lypvtz=-193501.41725615
C      -2.39358897     -1.00203907     -0.55986510
C      -1.91741167     -0.19258401      0.64758047
C      -0.57087269      0.52555025      0.46982664
N      -0.64952688      1.50290967     -0.61973930
C       0.58067793     -0.43538252      0.17588118
N       1.85786640      0.27309897      0.17257088
C       2.98761045     -0.55141588     -0.23481308
H      -2.40188368     -0.38483316     -1.45738277
H      -3.40313642     -1.38159659     -0.39368372
H      -1.75055686     -1.86304628     -0.75010380
H      -2.66907118      0.56578375      0.88891563
H      -1.85009492     -0.83867078      1.52815563
H      -0.34170708      1.00439019      1.43784560
H       0.28064227      1.86331865     -0.80169063
H      -1.23775941      2.28570517     -0.35992976
H       0.44186873     -0.86705882     -0.81770783
H       0.55808258     -1.26666978      0.89959085
H       2.03149650      0.65393855      1.09581407
H       3.91009058      0.02452478     -0.15549639
H       3.10585868     -1.47327383      0.35600586
H       2.86735763     -0.84306328     -1.27988543
