12
b3lypvtz=-200522.92915531
C       2.47361223      0.28883984     -0.00001246
N       1.55624938     -0.58888767      0.00000873
N       0.24785801     -0.18582681     -0.00000464
C      -0.34231720      1.07039336     -0.00000968
C      -1.68335668      0.82511111      0.00001006
N      -1.94232069     -0.53071173     -0.00012678
C      -0.77104262     -1.10401657      0.00004194
H       2.30726658      1.36351028      0.00004275
H       3.49284811     -0.07472035      0.00009061
H       0.21685357      1.98635059     -0.00006569
H      -2.48290091      1.54716348      0.00010677
H      -0.55867078     -2.15989054      0.00007839
