15
b3lypvtz=-216905.04997684
C      -1.65567471     -0.75861669      0.08428532
C      -0.37146074      0.00120008      0.22821984
C      -0.27557398      1.50931779      0.21004046
C       0.40489690      0.67583763     -0.85265264
O       1.77063704      0.39060677     -0.62540596
C       1.76960937     -0.73220695      0.24324026
O       0.60926336     -0.62694500      1.05015492
H      -1.47517266     -1.75826446     -0.31463244
H      -2.33870682     -0.23643564     -0.58656178
H      -2.14707140     -0.86095849      1.05365084
H       0.36188832      1.97639847      0.94708702
H      -1.15673968      2.06794212     -0.07970790
H       0.10604823      0.71215625     -1.89203579
H       1.74381930     -1.66244249     -0.34241051
H       2.65423748     -0.69758939      0.87672838
