20
b3lypvtz=-182667.19914023
C       1.65799884     -1.26148440      0.02040060
C       0.86089428      0.04316832     -0.00479001
C       1.79807755      1.24420797     -0.02399374
C      -0.26483567      0.06701080      1.07561760
C      -1.28468548     -0.38996885      0.01001425
N      -2.61340662      0.18671007      0.09576208
C      -0.26085456      0.02766254     -1.08865360
H       1.00502944     -2.13618113      0.03791084
H       2.29866226     -1.30873686      0.90452093
H       2.29844583     -1.34329767     -0.86137146
H       1.23998307      2.18241791     -0.04268819
H       2.44660235      1.22397275     -0.90400144
H       2.44139660      1.25611785      0.86005463
H      -0.48142286      1.08553715      1.40613658
H      -0.13738907     -0.56228494      1.95722382
H      -1.39944925     -1.47469508      0.02873431
H      -3.21014240     -0.15617428     -0.64828914
H      -2.57227801      1.19564716      0.00204365
H      -0.47650257      1.03273166     -1.45913794
H      -0.12518672     -0.63889595     -1.94253176
