14
b3lypvtz=-229604.0090493
C      -0.63606065      1.70692923     -0.03172215
C      -0.28265194      0.24433393     -0.01328359
C      -1.34773017     -0.75253833      0.00516552
N      -2.60934200     -0.55301173      0.04129541
C       1.00386219     -0.15596721     -0.00358175
N       2.14991761      0.59673155     -0.03024862
F       1.31669197     -1.46622531     -0.02004312
H      -1.00681087      2.05427921      0.93692416
H       0.20619742      2.33791432     -0.31409080
H      -1.42287841      1.89842711     -0.76485165
H      -1.02209100     -1.79100991     -0.00978185
H      -2.82871014      0.44428832      0.05717747
H       2.98125612      0.10778574      0.26115889
H       2.08075387      1.53575007      0.32261408
