17
b3lypvtz=-217695.96705929
C       1.97515285     -0.65465015     -0.39913030
C       0.72048351     -0.50299548      0.46120269
C       0.49190390      0.93970333      0.95437845
C      -0.31914286      1.58449214     -0.18204901
O      -0.82965667      0.50125234     -0.98593412
C      -0.55514756     -0.72700343     -0.34982761
O      -1.58636970     -1.09875793      0.54802497
H       2.07991806     -1.67659080     -0.76813370
H       1.94669017      0.00970269     -1.26488602
H       2.86983613     -0.41635071      0.17785322
H       0.75315620     -1.20529194      1.29328712
H      -0.08682285      0.92979956      1.87629567
H       1.42654478      1.46654875      1.14504176
H      -1.15089868      2.18427243      0.19094922
H       0.29136758      2.21374665     -0.83221216
H      -0.45656862     -1.47099866     -1.14524776
H      -2.41557424     -1.08859577      0.05779857
