18
b3lypvtz=-181886.44604208
C      -2.15739230     -0.23624157      0.05943387
N      -0.86764196      0.08216790     -0.52362500
C      -0.19165371      1.28137569      0.05564812
C       1.18388570      0.67694158      0.37319007
C       0.77177144     -0.64549573      1.08489098
C       0.18415051     -0.93883680     -0.32830098
C       1.42024437     -0.20157851     -0.89087995
H      -2.55730180     -1.13740057     -0.40903782
H      -2.13710757     -0.39867635      1.15009923
H      -2.85705433      0.57677722     -0.14118473
H      -0.14755077      2.10028215     -0.66570188
H      -0.69815355      1.64110271      0.95698898
H       1.94342853      1.34481848      0.77308358
H       1.62521806     -1.27389327      1.33280401
H       0.08768070     -0.58560156      1.93173943
H      -0.11574169     -1.93044005     -0.65875748
H       1.31242598      0.26118681     -1.87129327
H       2.33440340     -0.78862613     -0.82940715
