18
b3lypvtz=-205211.16499111
C       3.19317825     -0.29877907     -0.40556542
C       2.10964863      0.27109943      0.10663087
C       0.86913070     -0.46133594      0.52346422
C      -0.39161246      0.05018452     -0.17286694
O      -0.58852579      1.40919762      0.18720944
C      -1.63270543     -0.76258689      0.20162858
N      -2.81947149     -0.10856562     -0.36621341
H       4.05995274      0.28374088     -0.68942633
H       3.25602812     -1.37071833     -0.55734147
H       2.08223516      1.34707334      0.24129359
H       0.98307727     -1.53034788      0.32433097
H       0.71654662     -0.33880632      1.60160338
H      -0.24423820     -0.02622705     -1.26197479
H      -1.52186913      1.58695130     -0.00451207
H      -1.73598904     -0.75579495      1.28875252
H      -1.50510859     -1.80454219     -0.11669887
H      -2.92700551     -0.33565056     -1.34768853
H      -3.66533984     -0.40205928      0.10377628
