14
b3lypvtz=-201304.04156539
C       2.35972486      0.30985213      0.10794196
C       1.04807219      0.06533959      0.00805098
N       0.35698346     -1.08149963      0.41398575
C      -1.08227778     -0.84449299      0.37905446
C      -1.19959000      0.44109127     -0.42984711
N      -2.21052879      1.03509915     -0.91666273
N       0.08813244      0.90516127     -0.54864203
H       2.77847741      1.23707804     -0.24947366
H       3.02548233     -0.42498201      0.53214015
H       0.73372281     -1.55923200      1.21501386
H      -1.62269891     -1.65954907     -0.10630480
H      -1.51737926     -0.69023541      1.37340970
H      -3.06629335      0.52586931     -0.71650135
H       0.30817257      1.74050035     -1.06216515
