16
b3lypvtz=-181130.59624099
C       2.26785370      1.27946208     -0.37745476
C       2.27126388      0.03241489      0.50276906
C       1.38774044     -1.10847691     -0.03880316
C      -0.03277395     -0.78813184     -0.09096879
C      -1.20510023     -0.50599664     -0.11766690
C      -2.60098222     -0.20163587     -0.17094288
N      -3.17659966      0.84046737      0.28416035
H       1.26331332      1.69455603     -0.47142947
H       2.63028121      1.05356378     -1.38287528
H       2.91193678      2.05365147      0.04133538
H       1.93889318      0.28651706      1.51155390
H       3.28961280     -0.35236197      0.59589588
H       1.72381424     -1.38685549     -1.04316777
H       1.51919437     -1.99973820      0.58208328
H      -3.22873308     -0.94973353     -0.65664454
H      -2.49312377      1.46576077      0.71520671
