14
b3lypvtz=-203648.75111491
C       3.06038844      0.03827723      0.42931891
C       1.86198346     -0.00041719      0.51412371
C       0.43431177     -0.02575141      0.58316728
C      -0.43055302      0.54650685     -0.56655554
N      -1.66695673      1.22899301     -0.33837839
C      -0.36795060     -0.92716604     -0.32897678
O      -1.46769659     -1.55355748      0.27556157
H       4.11885221      0.06780027      0.36341940
H      -0.00232729      0.09474325      1.56777806
H       0.13144635      0.92145688     -1.41243381
H      -1.51567481      2.16906808      0.00562111
H      -2.22768166      0.73032474      0.34156557
H       0.18982461     -1.54350245     -1.02527625
H      -2.11806613     -1.74677572     -0.40893484
