13
b3lypvtz=-242082.87865547
C      -1.64444378     -0.89613860     -0.14011405
C      -0.95539529      0.43849146     -0.17348087
N       0.25863405      0.76254062      0.04307108
C       1.27765299     -0.07966450      0.38313633
C       2.53994785      0.29278149      0.57401532
F       0.96676060     -1.40411031      0.54123510
O      -1.81358787      1.43128506     -0.49295554
H      -1.15173409     -1.59588755     -0.81227829
H      -1.59370862     -1.32281684      0.86052254
H      -2.68449221     -0.77716450     -0.43101507
H       3.29149268     -0.43176791      0.84302722
H       2.80834946      1.32954678      0.45813512
H      -1.29947577      2.25290480     -0.49012022
