20
b3lypvtz=-182672.5606502
C       2.57756523     -0.85429152      0.60324449
C       1.79161151     -0.37711353     -0.62742515
C       0.48968514      0.32047886     -0.29747037
C       0.63223585      1.68346471      0.32828031
C      -0.67862030     -0.26781082     -0.57443355
C      -2.07346942      0.22164440     -0.29779774
N      -2.87148053     -0.65418875      0.57915898
H       1.98527961     -1.55641770      1.19255946
H       2.85899161     -0.02549968      1.25416873
H       3.49655021     -1.35954370      0.30102612
H       2.42611960      0.30271682     -1.20712929
H       1.58540457     -1.23421986     -1.27132657
H       1.14200379      2.36431631     -0.36044336
H      -0.31995808      2.13484647      0.59572066
H       1.24567085      1.64094243      1.23158377
H      -0.64174207     -1.24846707     -1.04637237
H      -2.62323186      0.31590453     -1.23906748
H      -2.06592491      1.21559727      0.14805060
H      -2.36635632     -0.81789021      1.44342873
H      -2.98881347     -1.56404896      0.14662702
