13
b3lypvtz=-242054.85045536
C       1.25048078      1.65187761      0.00002010
O      -0.06450988      1.08834946     -0.00002220
C      -0.23696618     -0.25086822     -0.00000204
C      -1.65658498     -0.65227052      0.00000547
N      -2.65795503      0.12497050      0.00000030
C       0.67578876     -1.23088520      0.00000915
F       2.01123427     -1.04386035     -0.00000020
H       1.80439653      1.35649471     -0.89065361
H       1.10263379      2.72852262      0.00001649
H       1.80433812      1.35649298      0.89072993
H      -1.83226579     -1.72808667      0.00001570
H      -2.34703414      1.09869298     -0.00000958
H       0.39467874     -2.27254190      0.00002750
