14
b3lypvtz=-224583.19245187
C       2.53293000     -0.12401217     -0.34325481
C       1.11982070     -0.13631771      0.16183465
N       0.69345206     -0.33972461      1.33423497
O       0.26726407      0.11742055     -0.87487903
C      -1.08513056      0.17995079     -0.62753572
N      -1.84120757      0.35171842     -1.61998013
N      -3.19499150      0.50804277     -1.37697891
H       3.23449468     -0.32947015      0.46173623
H       2.65421250     -0.87172428     -1.12813741
H       2.76234897      0.84696703     -0.78417702
H       1.46199057     -0.50794345      1.97450825
H      -1.37139848      0.08359053      0.41524199
H      -3.70574753      0.20354890     -2.19218446
H      -3.52793791      0.01795338     -0.55022860
