17
b3lypvtz=-191955.43124539
N       3.40873061      0.47206345      0.17990905
N       2.11648676      0.84927179     -0.10439539
C       1.17561317      0.03381800      0.15474714
C      -0.25123213      0.39421169     -0.04928211
C      -1.25382433      0.21435830      1.13189128
C      -2.31175095     -0.28122937      0.11571810
C      -1.15969826     -0.56236695     -0.87984138
H       3.57206753     -0.53199511      0.15804547
H       4.04960903      0.96323523     -0.42426812
H       1.38902228     -0.97032825      0.54782140
H      -0.30145388      1.40942493     -0.44232938
H      -1.48081902      1.09683018      1.72874140
H      -0.93488339     -0.58641162      1.80161638
H      -2.94201171     -1.11946252      0.40969617
H      -2.95282304      0.53088104     -0.22792988
H      -0.81273019     -1.59512866     -0.80929050
H      -1.31040251     -0.31727214     -1.93064965
