18
b3lypvtz=-181893.25278167
C       1.27823774     -0.39013889      1.39294105
C       0.84764193     -0.22559335     -0.04124407
C       1.68494161     -0.43982407     -1.05351355
C      -0.57462585      0.21106610     -0.25525555
C      -1.62343009     -0.84380379     -0.30586821
N      -1.25501754     -0.09395587     -1.52094620
C      -0.93471988      1.56882234      0.31928484
H       2.28799723     -0.79316815      1.45782484
H       1.26365508      0.56502822      1.92323641
H       0.60219635     -1.05936109      1.93114087
H       2.70333062     -0.76401164     -0.88190907
H       1.39646514     -0.28668551     -2.08539393
H      -1.30888632     -1.87804111     -0.22984875
H      -2.61382554     -0.63668514      0.08262289
H      -0.66781322     -0.67772839     -2.10665057
H      -0.29822450      2.34583341     -0.10904048
H      -0.81828506      1.59107010      1.40388609
H      -1.96963771      1.80717679      0.07873340
