15
b3lypvtz=-214533.71993804
C      -1.78862400      1.40947987      0.00318784
C      -1.48475054     -0.04768029      0.00011970
O      -2.62640578     -0.80997798     -0.00418327
C      -0.25864469     -0.59446260      0.00064707
N       0.90377514      0.16421742      0.01023241
C       2.03333769     -0.42118590      0.01001587
N       3.22267721      0.26454413     -0.06477731
H      -2.37775780      1.67220301      0.88547710
H      -0.86680029      1.98354641     -0.00016698
H      -2.38514107      1.67359565     -0.87360013
H      -2.38514377     -1.74327720     -0.00805251
H      -0.17074676     -1.68584639     -0.00554313
H       2.14823627     -1.51103338      0.01919990
H       3.16211437      1.25559468      0.11161504
H       4.03881704     -0.18634144      0.31227340
