17
b3lypvtz=-191978.04927844
C       2.52285649     -0.72180081      0.21279101
C       1.29728631      0.12944059     -0.03974984
N       1.27607689      1.39848156     -0.18282231
N       0.12290503     -0.59276056     -0.08426553
C      -1.11150952      0.01489173     -0.48463547
C      -2.38499656     -0.65864095     -0.06278278
C      -1.97874333      0.65334153      0.55906789
H       3.41203532     -0.10030645      0.28911539
H       2.67342517     -1.43711615     -0.59973467
H       2.41314407     -1.29204148      1.13739636
H       2.21072477      1.78169200     -0.08113312
H       0.21426343     -1.57796535     -0.26967798
H      -1.09346719      0.49944310     -1.45468318
H      -3.20848733     -0.67188603     -0.76275536
H      -2.30136475     -1.54692217      0.54913174
H      -1.61108756      0.63334809      1.57451012
H      -2.51887825      1.54835236      0.28560673
