13
b3lypvtz=-213770.780309
C       2.19422472      0.66177288      0.23633209
C       0.93735355      0.22974580      0.18900951
N       0.43306722     -1.06603380      0.21180326
C      -0.96669844     -1.05385316     -0.18539847
C      -1.30857311      0.41128581     -0.05865012
N      -2.45120586      0.92115066     -0.12904459
O      -0.13409884      1.10306163      0.13973941
H       2.40374601      1.71818194      0.23339288
H       3.01137912     -0.03930881      0.29782691
H       1.03011593     -1.78316984     -0.16391921
H      -1.13341029     -1.38178839     -1.21721949
H      -1.59622054     -1.65474881      0.47058443
H      -2.41967946      1.93360408     -0.02435661
