12
b3lypvtz=-223846.10474479073
C      -1.40943800     -0.87442612     -0.05582385
N      -0.00475496     -1.08877216     -0.03308097
C       0.64696064      0.06525705      0.01542477
N      -0.26006923      1.04286199      0.02613847
C      -1.64909599      0.49552744     -0.01926672
O      -2.61964958      1.24496865     -0.01669392
N       2.00187566      0.21693692      0.04830083
H      -2.09525541     -1.69606476     -0.09510140
H       0.43784023     -1.98869714     -0.05111115
H      -0.07154746      2.02980796      0.05986433
H       2.61234638     -0.57712486      0.03709180
H       2.41078769      1.12972502      0.08425781
