13
b3lypvtz=-216140.2023927
O      -2.47794028      1.21128945      0.26365069
C      -2.59695225     -0.09843964     -0.02261360
C      -1.58415792     -0.97828937     -0.09380865
C      -0.24177729     -0.59336592      0.13413181
C       0.89819449     -0.24735521      0.33902208
C       2.28415845      0.16259905      0.54436973
O       3.05007444      0.23720565     -0.65701230
H      -1.54112509      1.40908866      0.41432412
H      -3.62504817     -0.38452661     -0.19519358
H      -1.80786438     -2.00924076     -0.33154412
H       2.30282549      1.11944666      1.08078087
H       2.79726471     -0.56572797      1.17505557
H       2.54244780      0.73731601     -1.30416263
