14
b3lypvtz=-227006.06312564
C      -2.06454551     -0.28617522     -0.51537429
C      -0.94993799     -0.46795796      0.49541623
N       0.17027136     -1.33114943      0.06372458
C       1.11029167     -0.34325916      0.01814540
O       2.25256651     -0.29044289     -0.36059825
C       0.10691937      0.68036139      0.60031952
O      -0.14943892      1.81681357     -0.18675010
H      -2.77466014      0.46239228     -0.16151488
H      -1.67309542      0.04586227     -1.47541236
H      -2.60629189     -1.22292518     -0.65970396
H      -1.35055892     -0.76799694      1.46570021
H       0.20553404     -2.29513599     -0.23482806
H       0.33443063      0.94963531      1.63631646
H       0.69166221      2.12918794     -0.53947452
