12
b3lypvtz=-202905.02896979
C       2.69262552     -0.80033993     -0.39136832
C       1.87893496     -0.02096909      0.01870033
C       0.86814004      0.91597287      0.48955383
C      -0.54449518      0.55050237      0.02946879
O      -1.26709833      1.35596721     -0.50346036
C      -1.02864137     -0.86248941      0.30557585
N      -2.18527579     -1.26057264     -0.01002402
H       3.41959656     -1.48392128     -0.75400195
H       0.86359436      0.93379944      1.58630815
H       1.07752548      1.92937025      0.14667806
H      -0.34096677     -1.54314800      0.80456008
H      -2.68911848     -0.49545079     -0.47376145
