13
b3lypvtz=-239682.01726781
C       1.53238729      1.24119135     -0.45677884
C       1.23542449     -0.02100069     -0.11669082
N       2.15344802     -0.92133993      0.43120246
N      -0.01673308     -0.63424910     -0.28643736
C      -1.11718775     -0.11788149      0.02158044
N      -2.33941360     -0.64992164     -0.25867791
F      -1.26798616      1.06865574      0.65394425
H       2.54458097      1.61097783     -0.37386031
H       0.77408481      1.91844965     -0.81239771
H       3.11879626     -0.66874104      0.28679484
H       1.96598379     -1.87810603      0.17133457
H      -3.11078208     -0.34889829      0.31223283
H      -2.33699197     -1.61334634     -0.54611945
