16
b3lypvtz=-204454.10400888
C      -2.13991865      0.45592193     -0.36092064
C      -0.93858903     -0.10863342      0.37600433
C       0.14224704     -0.94292614     -0.37815205
C       1.27699928     -0.20704702      0.40047924
N       2.49450915      0.13821822     -0.29272174
C       0.20383277      0.85056038      0.73985375
O       0.25328680      2.03350464      0.93195058
H      -2.68150853      1.16204661      0.26971102
H      -1.83049401      0.98830717     -1.26202788
H      -2.83112669     -0.33552486     -0.65550366
H      -1.25547702     -0.64180981      1.27754135
H       0.10364209     -2.02424223     -0.27110455
H       0.17302131     -0.68694130     -1.43812590
H       1.52666710     -0.77385051      1.30098945
H       3.18268953      0.51325037      0.34851451
H       2.32021885      0.85666597     -0.98658780
