15
b3lypvtz=-191239.88524201
C      -1.94969338     -0.25930139     -0.04293403
C      -0.45944108     -0.38537312     -0.02349169
C       0.28212404     -1.54540728      0.00516606
N       1.60713196     -1.21415501     -0.00658352
C       1.74105269      0.15870304     -0.03192175
C       0.47349306      0.69613967     -0.04616335
N       0.11453629      2.05468106     -0.16107795
H      -2.42607070     -1.23917833     -0.08360336
H      -2.33353591      0.24909833      0.84787674
H      -2.29194628      0.31390430     -0.90886167
H      -0.04077326     -2.57228256      0.02572588
H       2.36787511     -1.86642003      0.00347469
H       2.70734830      0.63177985     -0.04864145
H       0.88040028      2.67964599      0.04607829
H      -0.67250111      2.29816546      0.42495711
