14
b3lypvtz=-203688.37382012
C      -2.19234018      0.46430875      0.48558023
C      -1.73004277     -0.46524220     -0.34165988
O      -0.44359401     -0.88756606     -0.51647920
C       0.56909200     -0.35596992      0.32888285
C       1.78855228     -1.26194335      0.20674558
C       0.90389357      1.03386247     -0.04186097
N       1.20040907      2.10893777     -0.32277105
H      -1.57330646      1.06069948      1.13801664
H      -3.25335605      0.66182373      0.49576497
H      -2.37805115     -1.02017029     -1.00653895
H       0.21002427     -0.34560768      1.36310971
H       2.59721912     -0.89385802      0.83655854
H       2.13190973     -1.29344545     -0.82575419
H       1.51839359     -2.26801423      0.52289171
