18
b3lypvtz=-181911.15983128
C       1.60637639     -1.99488127      0.00808149
C       1.37508089     -0.67621386     -0.00706132
C       0.08000215     -0.01290725     -0.00101555
C      -0.01510019      1.33512432     -0.00452570
N       1.01478227      2.26278596     -0.06141305
C      -1.15459249     -0.88910074     -0.00174988
C      -2.50896425     -0.18413231      0.00709510
H       2.61647167     -2.38025282     -0.00427225
H       0.81038743     -2.72644426      0.02973128
H       2.25073059     -0.03462269     -0.04152536
H      -0.99221742      1.79791836     -0.02149705
H       1.92646148      1.95514922      0.23504638
H       0.78839052      3.17523563      0.29714560
H      -1.10498757     -1.55830190      0.86456040
H      -1.11104746     -1.55087326     -0.87423372
H      -3.31341166     -0.92078628      0.01190645
H      -2.63567484      0.44355037      0.89148354
H      -2.64719851      0.44418477     -0.87496536
