10
b3lypvtz=-228108.45665267
F      -2.21682697     -0.02822016      0.00000251
C      -0.88277328     -0.01724072     -0.00003867
C      -0.21839341      1.20094597      0.00000035
C       1.16290383      1.11196278      0.00000668
N       1.81249628     -0.05754810      0.00004984
C       1.05005311     -1.14361961      0.00016921
N      -0.28670367     -1.18201206      0.00005470
H      -0.74849020      2.14114178     -0.00007250
H       1.77405892      2.00715502     -0.00001956
H       1.55637939     -2.10152391     -0.00006157
