16
b3lypvtz=-258678.80874691
C       1.63095602      1.25492420     -0.54931778
C       1.22884817      0.02707951      0.26561256
N       2.36967070     -0.89254921      0.32095666
C      -0.05506705     -0.64331203     -0.26644783
C      -1.30307037      0.20244447     -0.19023586
F      -2.38256618     -0.51730722     -0.63489879
F      -1.56536548      0.55022379      1.11188768
H       0.86392962      2.02976835     -0.52698896
H       1.80709567      0.98669691     -1.59514672
H       2.55275999      1.67581457     -0.15052816
H       1.03715463      0.34519778      1.29289069
H       2.15426100     -1.70079505      0.89349776
H       2.59100513     -1.24073972     -0.60638939
H      -0.25607218     -1.55415477      0.30293446
H       0.08554942     -0.93496776     -1.31129383
H      -1.26782109      1.12523318     -0.77149649
