18
b3lypvtz=-205215.21808108
C       2.83042461     -0.72480828     -0.25975585
N       1.72870434      0.22242939     -0.36915694
C       0.79642921      0.16610704      0.75355490
C      -0.39626574      1.09880710      0.53932929
C      -1.24427982      0.73460511     -0.67727384
C      -2.15172356     -0.45209502     -0.49382683
O      -2.27832123     -1.08566156      0.52394737
H       3.51717453     -0.58832402     -1.09567264
H       2.44126636     -1.74352438     -0.31302329
H       3.40495817     -0.63804982      0.67587858
H       2.09933923      1.16244206     -0.45067589
H       0.44146309     -0.86256451      0.84430815
H       1.27893448      0.41368626      1.71303369
H      -0.03170315      2.12425531      0.42587809
H      -1.01767252      1.08284940      1.43613041
H      -1.88951808      1.56730503     -0.98390601
H      -0.60646320      0.53010705     -1.54408427
H      -2.74068071     -0.72311215     -1.39627994
