16
b3lypvtz=-204465.49543937
C       1.40597759     -0.11604379      0.04019165
C       0.65793919      0.96323646      0.83769417
C      -0.68835160      1.32522020      0.23780346
O      -1.12314242      2.45278547      0.24371983
C      -1.49920746      0.15766740     -0.31024962
N      -0.65281807     -0.74702713     -1.08577087
C       0.47549802     -1.26967866     -0.32108033
H       1.79685172      0.31605916     -0.88316843
H       2.25716182     -0.48172723      0.61786549
H       0.44402420      0.58094852      1.84396177
H       1.24005850      1.87578649      0.95873548
H      -2.29367159      0.56046424     -0.93546088
H      -1.97085583     -0.33232066      0.56358390
H      -1.20918209     -1.49848449     -1.47134707
H       0.15825883     -1.78772061      0.60177135
H       1.00145918     -1.99916538     -0.93824991
