11
b3lypvtz=-213015.02662981
C      -1.28322104     -0.09979193      1.01003277
C      -0.45602016     -0.23151352     -0.03929426
N       0.91177220     -0.09988852      0.10119284
C       1.63804706     -0.23869190     -0.93272276
O       2.96448375     -0.12888799     -0.89096213
C      -2.68920591     -0.23134912      0.88823875
N      -3.83650341     -0.33472292      0.81170993
H      -0.88175662      0.11416218      1.99186055
H      -0.86641487     -0.44699373     -1.02571126
H       1.28225801     -0.45581542     -1.94048165
H       3.21656099      0.06315256      0.02613722
