12
b3lypvtz=-179607.5009287
C      -2.25590806     -0.38163758      0.76197733
C      -1.14741089      0.32782868      0.61598273
C      -0.37039796      0.42483376     -0.67744832
C       1.01643461      0.00421488     -0.53469596
C       2.16262640     -0.34280664     -0.39932093
C       3.46297116     -0.73608120     -0.25251423
N       4.56392663     -1.06799367     -0.12819763
H      -2.67541403     -0.96123210     -0.05167640
H      -2.78497596     -0.40926893      1.70490739
H      -0.74339418      0.89063058      1.45007167
H      -0.37706176      1.46005603     -1.03801645
H      -0.85139598     -0.17936098     -1.45106920
