17
b3lypvtz=-191957.6259284
C       1.43275815      1.66016453      0.13911204
N       0.64793124      0.99954210     -0.59491741
C       0.12149536     -0.27447017     -0.17159922
C      -1.37013883     -0.34879774     -0.42763755
N      -2.09768217      0.58338838      0.43971993
C       0.93671245     -1.50155939     -0.47714454
C       0.70378856     -1.08303743      0.95678882
H       1.80713257      2.61564724     -0.22196343
H       1.76753072      1.33962187      1.12996410
H      -1.53205572     -0.17274634     -1.49963263
H      -1.71543307     -1.35961860     -0.20385731
H      -1.87114380      1.53573548      0.17478382
H      -3.09612252      0.47840206      0.30332576
H       0.42385407     -2.37347420     -0.86152892
H       1.92500505     -1.34315441     -0.88678302
H       0.01311953     -1.65501877      1.56039996
H       1.55189340     -0.70182860      1.50692662
