12
b3lypvtz=-223858.25858046
N      -1.99026531     -0.38709170      0.73516227
C      -0.77247287     -0.04805198      0.11205066
C      -0.40434310      0.63209995     -1.01098556
N       0.97615216      0.67915999     -1.13292121
C       1.42157575      0.03130418     -0.09452074
O       2.71212180     -0.19450420      0.22075901
N       0.43489201     -0.43514841      0.70238717
H       0.53025777     -0.94817786      1.56164068
H      -2.57143770      0.41984453      0.91574883
H      -2.52840955     -1.06177945      0.20734583
H      -1.04707316      1.09326235     -1.74216516
H       3.23880220      0.21928260     -0.47470177
