12
b3lypvtz=-226287.87774211
O       2.30429299     -1.02976810     -0.00643651
C       1.22873874     -0.48892837     -0.00468534
C      -0.14816858     -1.14240534      0.02647320
C      -1.15207168      0.01861122      0.01350492
C      -0.30620181      1.28626485     -0.02376058
O      -0.68595804      2.42850495     -0.04334634
N       1.02383858      0.88488368     -0.03151415
H      -0.23684011     -1.80472070     -0.83406323
H      -0.21521679     -1.76634207      0.91714369
H      -1.78947186      0.05329695      0.89642079
H      -1.81022702      0.01574377     -0.85478041
H       1.78748559      1.54485916     -0.05495606
