19
b3lypvtz=-192725.60635359
C      -1.43028376     -1.28667173      0.14665369
C      -1.23989801      0.22372717      0.25371093
C       0.10945544      0.69512618     -0.30446823
C       1.30906614      0.26476810      0.50231542
C       2.66745678      0.21067139     -0.08518945
N       1.92411130     -1.03368009      0.17477602
N      -2.30936909      0.88635881     -0.50752177
H      -1.41816657     -1.59328335     -0.90027827
H      -0.64163613     -1.82612888      0.66842722
H      -2.38957707     -1.58415161      0.57782651
H      -1.26799677      0.49412204      1.32204661
H       0.10203176      1.79047959     -0.34560778
H       0.21429212      0.34103513     -1.33248415
H       1.26663472      0.52859559      1.55600710
H       2.80560133      0.44503270     -1.13378792
H       3.51225404      0.45586777      0.54769498
H       2.27739046     -1.48358905      1.01246075
H      -2.27326113      1.89090266     -0.37439401
H      -3.21810556      0.58081758     -0.17794764
