16
b3lypvtz=-204429.058035
C      -3.04553248      0.26759854      0.33972677
C      -1.73929829      0.37460690     -0.32725869
O      -2.47850848      1.54703582      0.07419518
C      -0.47731982      0.11572812      0.38602427
C       0.62105582     -0.35516761     -0.19795515
C       1.90889043     -0.64779068      0.50867496
N       3.02312165      0.02777297     -0.16753074
H      -3.92320194      0.01190278     -0.24639991
H      -3.08504214     -0.01636292      1.38718739
H      -1.71297158      0.22123388     -1.40258210
H      -0.48243647      0.33399448      1.45036062
H       0.62636080     -0.54277379     -1.26812467
H       2.10737708     -1.72333646      0.45591827
H       1.80557778     -0.39666278      1.57322527
H       3.90785957     -0.24944651      0.24006843
H       2.94406806      1.03166727     -0.05380306
