12
b3lypvtz=-226254.87238159
C      -1.04588521      0.65719653      0.26126336
C      -0.98931524     -0.86060239      0.01117697
N       0.41272727     -1.22096323     -0.25909285
C       1.13845368     -0.18123132     -0.20029116
C       0.40165906      1.09646683      0.11781376
O       0.87534572      2.19510274      0.22633203
O       2.45967866     -0.14613970     -0.39373314
H      -1.66226249      1.19392938     -0.46086371
H      -1.41169175      0.92157592      1.25398067
H      -1.33651935     -1.43921508      0.86850197
H      -1.59674428     -1.16790769     -0.84136155
H       2.75455393     -1.04821203     -0.58372634
