12
b3lypvtz=-252167.64538946
C      -2.05910466     -0.19671044      0.66823608
N      -0.82054099     -0.48992080     -0.02180993
C       0.31371898      0.22166439      0.15712252
O       0.43475494      1.17674030      0.90106485
N       1.35910085     -0.32571307     -0.67012443
C       2.46027964      0.25826104     -0.58536980
F       3.49450528     -0.16503273     -1.30571302
H      -2.38638031     -1.05087531      1.26393784
H      -1.88290932      0.64861616      1.32787949
H      -2.85041663      0.06263385     -0.03787387
H      -0.76870321     -1.25611636     -0.67120731
H       2.70569544      1.11645296      0.03425259
