15
b3lypvtz=-216890.62323283
C       1.94746967     -0.11068224      0.10317762
C       0.51030241     -0.16406437     -0.28186017
C      -0.31986511      0.95607433     -0.85858197
C      -0.78928583      0.21578427      0.37298928
C      -1.27492401     -1.17066454     -0.01652672
O      -0.02644161     -1.42573535     -0.72668989
O      -1.01986593      0.81452281      1.60058483
H       2.18845692      0.86012310      0.53659559
H       2.17870580     -0.88630055      0.83444797
H       2.58490359     -0.26126238     -0.77107598
H       0.06255036      1.94788238     -0.65081538
H      -0.81624831      0.83257865     -1.81489545
H      -1.37188597     -1.83835094      0.84184385
H      -2.14879091     -1.25346654     -0.66745511
H      -1.70508105      1.48356138      1.49826152
