16
b3lypvtz=-225343.41223522
C      -2.48546035     -0.56574213      0.56253288
N      -1.65319401     -0.15611546     -0.57287595
N      -0.27974626     -0.56267005     -0.34653079
C       0.46368307      0.44393640     -0.06462261
N       0.06685145      1.74489554      0.08278478
O       1.78014375      0.29049061      0.16950265
C       2.29975254     -1.04100825      0.08171689
H      -2.33740857     -1.61537580      0.84225885
H      -2.25139345      0.05536589      1.42740283
H      -3.53309313     -0.40648813      0.30115464
H      -1.94284993     -0.70191472     -1.37610024
H       0.78284593      2.43963675     -0.04758887
H      -0.83041787      1.91990843     -0.34701642
H       3.35944017     -0.95051292      0.30574550
H       1.80912328     -1.69410429      0.80187833
H       2.15281836     -1.44852386     -0.91766847
