18
b3lypvtz=-205207.5292326
C      -1.59022980     -1.79628267      0.27330955
N      -0.85373682     -1.10342630     -0.47879135
C       0.07706981     -0.16059675      0.12027852
C      -0.23145399      1.26312005     -0.35790355
C      -1.54798932      1.82465537      0.17418112
C       1.49750750     -0.59300621     -0.28346104
O       2.50832108      0.23585673      0.27563533
H      -1.57590066     -1.72244896      1.36857663
H      -2.28474931     -2.50987724     -0.16548876
H       0.01148917     -0.18928741      1.22275287
H       0.60009979      1.89943447     -0.05101036
H      -0.24272006      1.25618139     -1.45091951
H      -1.70592884      2.84450985     -0.17961679
H      -1.55525795      1.85080615      1.26671725
H      -2.40002802      1.22619772     -0.15112171
H       1.64864441     -1.64198290     -0.00720637
H       1.60321006     -0.51777005     -1.36576671
H       2.54611995      0.07934176      1.22406487
