12
b3lypvtz=-200537.31176658
C      -2.14096630     -0.28266504      0.07266470
N      -0.90566417     -0.54199943      0.22935035
C       0.08853044      0.40056117     -0.04325457
C       1.38905815      0.03216239      0.14825170
N       1.76855163     -1.19017164      0.55916922
C      -0.22390169      1.70970438     -0.50819448
N      -0.55036485      2.75303984     -0.88351618
H      -2.86456015     -1.05736869      0.30396318
H      -2.51797153      0.67845580     -0.28323350
H       2.18052294      0.74284870     -0.04518234
H       1.05340300     -1.85656799      0.80070681
H       2.72336252     -1.38799948      0.78762053
