16
b3lypvtz=-204454.95373829
C      -2.63744865     -0.86786554      0.25038298
C      -1.58906989     -0.06552914      0.03671512
O      -1.67751806      1.30128447     -0.04844526
N      -0.31377092     -0.60167629     -0.11407579
C       0.68546252      0.16082550     -0.32134897
C       2.06710088     -0.38751644     -0.48103958
C       3.04121515      0.17497048      0.56418041
H      -2.48032129     -1.93217751      0.30361230
H      -3.64000984     -0.48145544      0.37118747
H      -2.59575050      1.56432520      0.06891386
H       0.57773775      1.24703449     -0.38128605
H       2.02080046     -1.47497739     -0.42628397
H       2.42903655     -0.12113272     -1.48082432
H       4.04928343     -0.20425347      0.39403060
H       3.08350239      1.26509172      0.52246115
H       2.73826601     -0.11004092      1.57252706
