15
b3lypvtz=-191225.3821552
C       2.93199359     -0.38305093      0.15926547
N       1.67204535     -0.03524966     -0.46839684
C       0.62822491     -0.03327023      0.23311094
C      -0.70966667      0.36058320     -0.36311408
C      -1.18731020      1.72079296      0.18656790
C      -1.70366888     -0.68416256     -0.09970725
N      -2.48128233     -1.50145148      0.12739180
H       2.84362113     -0.61592964      1.22773768
H       3.35781845     -1.24352663     -0.35952575
H       3.63238458      0.44386079      0.03012254
H       0.62379441     -0.28603800      1.30231180
H      -0.57021593      0.43049248     -1.44306683
H      -0.45917817      2.48921437     -0.06940632
H      -1.29556622      1.68730487      1.27064428
H      -2.15052602      1.99086446     -0.24380732
