17
b3lypvtz=-215281.86397927
C       1.40882351     -1.00625649      1.05469039
C       0.70501009     -0.53916297     -0.22004693
O       1.65039595      0.01239481     -1.15535070
C      -0.31782720      0.53632184      0.04579351
N       0.26294391      1.77781512      0.41103089
C      -1.63935446      0.32526946      0.03063630
N      -2.32315987     -0.87549689     -0.27146982
H       0.69557212     -1.46865845      1.73896555
H       1.87009041     -0.15846321      1.55909143
H       2.17925732     -1.74779746      0.82428828
H       0.21103672     -1.39344875     -0.69418281
H       2.41795607     -0.56607956     -1.18690270
H       0.99035293      2.03984609     -0.24278033
H      -0.41870804      2.52109123      0.47394237
H      -2.30465937      1.16027602      0.21972232
H      -3.18994407     -0.96108914      0.23945155
H      -1.77730602     -1.71216665     -0.12850629
