13
b3lypvtz=-213782.72896162
C      -2.35292615      0.45192291     -0.14473818
C      -1.12533667      0.56896100      0.35302609
C       0.03679438     -0.22321159     -0.09745348
N       0.03585291     -1.29512678     -0.78485473
C       1.39705390      0.32314937      0.34418749
O       1.48191424      1.29634828      1.07427402
N       2.44798795     -0.36285198     -0.14808607
H      -3.16707461      1.06074003      0.22332278
H      -2.59404736     -0.24020226     -0.94403076
H      -0.90540554      1.30173743      1.11728576
H      -0.90940149     -1.60510996     -1.01147031
H       2.27610131     -1.18163273     -0.70748286
H       3.37848713     -0.09472373      0.11758545
