16
b3lypvtz=-204454.23763702
C       1.58937303      1.47524593     -0.17362390
C       1.22116306      0.20698946      0.00829920
O       2.19018829     -0.74138136      0.21600534
C      -0.18771681     -0.28678309     -0.06845992
N      -0.48248632     -1.51119487     -0.26913288
C      -1.29972922      0.72282736      0.11321699
C      -2.70284577      0.12741588      0.09523132
H       2.63161855      1.75452451     -0.12122245
H       0.86686837      2.23933353     -0.40596301
H       1.81576706     -1.47814668      0.71256306
H       0.34936472     -2.08038842     -0.43113078
H      -1.20629716      1.47473584     -0.67635251
H      -1.12368946      1.26278815      1.04762173
H      -3.44475562      0.91508972      0.23274322
H      -2.90503153     -0.37881902     -0.84733556
H      -2.82855617     -0.60790095      0.88909314
