18
b3lypvtz=-205204.57284721
C      -2.35037966      0.39428913      0.07238577
C      -1.03611096     -0.05087587     -0.53410270
C      -0.01311077     -0.81455737      0.32348839
C       1.07453874      0.06206116     -0.34755186
N      -0.00871616      1.01063678     -0.72367136
C       2.20104265      0.64359587      0.48134124
O      -0.00048184     -2.21009272      0.10986488
H      -2.97340309     -0.46995119      0.31371861
H      -2.90938558      1.02518288     -0.62207259
H      -2.17636751      0.96931066      0.98287841
H      -1.21410911     -0.63503057     -1.44562036
H      -0.12007749     -0.57528476      1.38665737
H       1.47371042     -0.48980151     -1.20777508
H       0.05337008      1.38928225     -1.66095319
H       1.80393614      1.17513928      1.34734868
H       2.87422480     -0.14433924      0.82992549
H       2.79513934      1.35063924     -0.10178060
H       0.52617998     -2.63020400      0.79591888
