13
b3lypvtz=-213697.77598859
C      -1.64934868     -0.86104501     -0.03415832
C      -1.03998929      0.36560487     -0.60723809
N      -0.60717222     -1.04462253     -1.04149814
C       0.70094307     -0.83010672     -0.30927360
C       0.29136633      0.59506578     -0.00782497
N       0.85927278      1.66748882      0.34228908
O       2.18982003      1.41464845      0.74993149
H      -2.63883642     -1.11800927     -0.39008512
H      -1.44751089     -1.13316665      0.99657548
H      -1.57883019      1.04281486     -1.25442552
H       1.54696877     -0.88366633     -0.99263058
H       0.85997904     -1.51211090      0.52674709
H       2.51333769      2.29710463      0.95589911
