16
b3lypvtz=-202057.87660299
C      -2.42714404     -0.88484371     -0.55237140
C      -1.55601503     -0.03151950     -0.00204510
N      -1.70881714      1.34868215      0.03788286
C      -0.32621963     -0.51007716      0.73844846
N       0.85425841      0.24215354      0.34044282
C       1.87405281     -0.40672577     -0.03583798
N       3.06697484      0.18884778     -0.35823500
H      -2.27041848     -1.95083422     -0.48810556
H      -3.32471604     -0.54162830     -1.05101865
H      -2.36880479      1.72980069     -0.62153676
H      -0.82745393      1.84208846      0.04330253
H      -0.48982338     -0.33833701      1.80879527
H      -0.21239111     -1.58982420      0.58785170
H       1.90254715     -1.50157755     -0.09006936
H       3.69261380     -0.31707653     -0.96072513
H       3.04234556      1.18719732     -0.49444270
