16
b3lypvtz=-181121.00970345
C      -1.28859938     -0.11763899      0.84774583
N      -0.61017201     -1.38642723      0.47708747
C       0.49924161     -0.97508498     -0.38734654
C       1.47217743     -0.04522343      0.40140122
C       0.73997565      1.15583347     -0.19453678
C       0.03834088      0.27067613     -1.20823305
C      -0.76069310      0.93505278     -0.13203971
H      -2.37205731     -0.22535591      0.77636552
H      -1.05464594      0.14355941      1.88210958
H      -1.25010657     -1.95698209     -0.06444137
H       0.94126188     -1.82067888     -0.90692588
H       1.48365296     -0.17038169      1.48616782
H       2.49027209     -0.11921905      0.01942417
H       1.15236110      2.14513994     -0.33948515
H      -0.10226737      0.38095480     -2.27349895
H      -1.37884194      1.78577571     -0.38389418
