18
b3lypvtz=-205210.60042084
C      -3.58706937     -0.35502959     -0.15181242
C      -2.34057148      0.51605692     -0.08571792
N      -1.14559216     -0.29140511      0.12392039
C       0.10633408      0.25870359     -0.06397029
C       1.24788498     -0.10257018      0.53820810
C       2.57344103      0.47838331      0.17521832
O       3.46383676     -0.47023080     -0.43061921
H      -3.50995018     -1.08166495     -0.96095226
H      -3.73332735     -0.90270700      0.78218118
H      -4.47474627      0.25698701     -0.31540101
H      -2.21284383      1.05387686     -1.02779222
H      -2.46233335      1.27777870      0.69734110
H      -1.21052596     -0.92064578      0.91137865
H       0.12621785      1.04069861     -0.81816668
H       1.24089763     -0.87887740      1.29796918
H       3.10894842      0.82518091      1.06144961
H       2.43033869      1.34653118     -0.48108038
H       2.96559350     -0.92944728     -1.11455613
