10
b3lypvtz=-223080.27813919
N      -2.28160246     -0.33162421      1.72792365
C      -1.50224793     -0.19746206      0.89078494
C      -0.58671600     -0.02950708     -0.21783478
N      -0.96727937      0.04136428     -1.42612099
C       0.88797986      0.06518502      0.08470941
N       1.80089067      0.21192752     -0.76862700
O       1.13040573     -0.02697636      1.40621082
H      -1.97899614     -0.03323629     -1.51851354
H       1.40931017      0.25946373     -1.70721659
H       2.08835547      0.04076547      1.52858408
