18
b3lypvtz=-181882.21908807
C      -3.51692053      0.65769169     -0.03699593
C      -2.47860888      0.10084787      0.19159360
C      -1.20303298     -0.56150787      0.43403607
C      -0.14490143     -0.22528062     -0.63613843
N       1.11773139     -0.89867023     -0.35397399
C       2.04091440     -0.20183288      0.54111383
C       2.74295419      1.02669212     -0.04728296
H      -4.43957902      1.14495818     -0.22964104
H      -1.34009177     -1.64491340      0.45912436
H      -0.82999367     -0.27475433      1.42091658
H      -0.05305067      0.86615803     -0.70935096
H      -0.51283964     -0.57100624     -1.60273870
H       1.58785714     -1.14003993     -1.21582921
H       2.79318800     -0.92292715      0.87055306
H       1.48814391      0.08506467      1.43884420
H       2.03010606      1.78719288     -0.36957834
H       3.35071516      0.74763803     -0.91128407
H       3.40529533      1.48534818      0.69021493
