11
b3lypvtz=-238683.64871594
C       2.62302911     -0.02981905      0.54669869
C       1.54105788     -0.16797261      0.04478983
C       0.24120156     -0.28116231     -0.56442958
O      -0.00925018     -1.07898450     -1.44512075
C      -0.87288444      0.63735464     -0.00985842
O      -1.99099484      0.53844562     -0.82249383
O      -1.12824452      0.26720884      1.33037769
H       3.58308420      0.08401625      0.98778484
H      -0.52747224      1.67174500      0.04005795
H      -1.83583367     -0.20792941     -1.42510835
H      -1.62369287     -0.56131316      1.31730191
