16
b3lypvtz=-181091.9241436
C       2.44978662      0.21014037     -0.03521431
C       1.30458457     -0.45674013      0.67014073
C       0.02483495     -0.22978976      0.42452537
C      -1.36561350     -0.69591086      0.81213270
C      -1.82121482      0.78596580      0.73542694
C      -0.91389018      0.53061497     -0.49857758
N      -1.71002882     -0.77134885     -0.68428408
H       3.08008220      0.76382318      0.66626482
H       2.10000219      0.91033583     -0.79428809
H       3.09566715     -0.52292623     -0.52664686
H       1.55431028     -1.17686231      1.44347177
H      -1.67443647     -1.46649953      1.51411910
H      -2.87524741      0.92706315      0.50246065
H      -1.44501368      1.46237827      1.49900787
H      -0.70003310      1.19625897     -1.33079095
H      -1.10378996     -1.46650288     -1.12523238
