17
b3lypvtz=-194374.20499765
C       2.54249247      0.00000004     -0.21713242
C       1.04510471      0.00000003     -0.40836816
C       0.16828978      0.75607761      0.55298885
C      -1.20242862      1.16084182      0.05505101
O      -1.74290320     -0.00000002     -0.58208434
C      -1.20242854     -1.16084166      0.05505114
C       0.16828986     -0.75607742      0.55298901
H       2.99966516      0.88214585     -0.67078817
H       2.99966525     -0.88214583     -0.67078797
H       2.80563908      0.00000016      0.84274023
H       0.71404390     -0.00000007     -1.44215265
H       0.62146593      1.31992475      1.35738089
H      -1.83301164      1.47692526      0.89684717
H      -1.19515543      1.95846594     -0.69029663
H      -1.83301153     -1.47692516      0.89684731
H      -1.19515515     -1.95846588     -0.69029641
H       0.62146599     -1.31992445      1.35738114
