17
b3lypvtz=-217688.37551243
C       2.55619839     -0.63685459      0.46239699
C       1.26755113     -0.03058225      0.00388846
O       1.38684483      1.15508774     -0.69018257
C       0.06049916     -0.54158691      0.23559474
C      -1.23375653      0.05892292     -0.21940447
C      -1.93303541      0.84910540      0.88904379
O      -2.05568907     -1.03695625     -0.65697547
H       3.20715825     -0.85429021     -0.39108318
H       2.38257845     -1.56682184      0.99885343
H       3.09768683      0.04644932      1.12379738
H       2.31414820      1.32336062     -0.87868807
H      -0.01187768     -1.45948276      0.80329376
H      -1.03671665      0.73118040     -1.06073967
H      -2.12706349      0.20732329      1.74976859
H      -1.31519056      1.68872854      1.21024693
H      -2.88793143      1.24981976      0.53615497
H      -2.91167641     -0.68193418     -0.91572461
