17
b3lypvtz=-191962.39184403
C      -2.43509657     -0.03841578     -0.08530929
C      -1.14248607     -0.71120263      0.35765659
N      -0.00246645     -0.25435255     -0.41568712
C       1.31970278     -0.84340325     -0.09854720
C       1.90484378      0.56307538     -0.16069611
N       3.03027760      1.11636400     -0.21970094
C       0.49782911      1.12638295     -0.17842858
H      -3.28028352     -0.40822678      0.49709297
H      -2.38588184      1.04328100      0.05331640
H      -2.62611813     -0.23478438     -1.14070474
H      -0.98594873     -0.54112369      1.43919015
H      -1.22482075     -1.79202471      0.21811933
H       1.68584057     -1.57825986     -0.81892655
H       1.38755550     -1.26866003      0.91400571
H       3.78544391      0.42903330     -0.20456836
H       0.21118289      1.53972818      0.79977663
H       0.26042590      1.85258886     -0.95658888
