17
b3lypvtz=-215279.89774736
N      -1.89207823      0.19052550     -1.48751375
C      -2.06857249     -0.21718640     -0.09292879
C      -0.83106464     -0.95875596      0.40591604
N       0.31985012     -0.07238875      0.42976854
C       1.35917769     -0.37529249     -0.21739927
C       2.54381458      0.54670202     -0.20119507
O       2.31265479      1.70728763      0.55403629
H      -2.75536821      0.56685494     -1.85940797
H      -1.20356076      0.93218847     -1.54502567
H      -2.27559258      0.61544570      0.59238036
H      -2.91778956     -0.90147025     -0.04133980
H      -0.65357379     -1.83801075     -0.22615530
H      -1.01507124     -1.29571739      1.42962186
H       1.44973933     -1.29885606     -0.80183503
H       2.79562336      0.80930481     -1.23793489
H       3.40804284     -0.00793659      0.19238903
H       1.42396879      1.59720555      0.92912343
