12
b3lypvtz=-252119.53312113
C       2.15622256     -0.03683465      0.15808308
C       0.99115074      0.57649662      0.26970967
C      -0.35842004      0.03653407      0.00472272
N      -0.43373879     -1.07051803     -0.64691767
O      -1.79552216     -1.45028848     -0.77440930
N      -1.42279518      0.72842802      0.51301225
F       0.94456455      1.87287009      0.68184239
H       2.18259620     -1.06774167     -0.15520588
H       3.07570364      0.48749676      0.36922841
H      -1.73686191     -2.24285969     -1.31476038
H      -1.27757976      1.69502231      0.74370933
H      -2.32531983      0.47139464      0.15098538
