15
b3lypvtz=-216919.44442921
C      -2.15503432      0.74030239     -0.42319138
C      -1.85816454     -0.38207198      0.22687521
O      -0.65118015     -0.99396512      0.35697950
C       0.47367324     -0.38494821     -0.27375349
C       1.61297964     -1.39730182     -0.24774977
C       0.88772443      0.87550374      0.47699225
O       1.58959120      1.72761024      0.00204960
H      -3.17981107      1.07924381     -0.42282967
H      -1.43552961      1.34345612     -0.95528489
H      -2.61329545     -0.95430502      0.75020956
H       0.23258883     -0.11579303     -1.30603191
H       2.49520703     -0.97188801     -0.72383414
H       1.31641896     -2.29818303     -0.78319913
H       1.86175106     -1.67160691      0.77809754
H       0.52693174      0.92410784      1.52507472
