11
b3lypvtz=-210581.6222180542
C       0.36510980     -0.16458812     -0.16689533
N      -0.72898594      0.49102384     -0.02128920
C      -1.91081979     -0.25457090     -0.01301327
N      -3.07322281      0.23128977      0.11747910
C       1.63070611      0.49320878     -0.18925155
N       2.72995235     -0.20354350     -0.33977414
N       3.67460949     -0.80296974     -0.46913108
H       0.38064725     -1.25614436     -0.28063134
H      -1.81095060     -1.34088637     -0.12897193
H      -3.00622978      1.24693528      0.21471667
H       1.74918391      1.56024532     -0.08725516
