15
b3lypvtz=-214531.88763547
N      -2.60038570      0.12661978      0.01298551
C      -1.34194246     -0.07369822     -0.00747842
O      -0.79385775     -1.29312594      0.15817388
C      -0.47758316      1.11481610     -0.19245122
C       0.83666627      1.28125942     -0.00959400
C       1.87832423      0.27851151      0.42492836
N       1.82746209     -0.96132207     -0.37573086
H      -3.08508397     -0.75808497      0.16523968
H       0.17077546     -1.29758040     -0.08806716
H      -1.05981252      1.98109053     -0.47723158
H       1.21722022      2.28418824     -0.16671794
H       2.86168263      0.75578405      0.38668767
H       1.70770514     -0.00700868      1.46654485
H       2.03285381     -0.76625965     -1.34905258
H       2.50881671     -1.63529271     -0.04604420
