13
b3lypvtz=-190441.6104792
C       3.07727662     -0.30477103     -0.00007461
C       1.89511959     -0.08937846     -0.00005019
C       0.47955328      0.19958636     -0.00001766
N       0.04181588      1.42379038      0.00000314
C      -0.40765825     -0.93708444     -0.00000287
C      -1.76677647     -0.82510823     -0.00011233
N      -2.44998522      0.33128434      0.00005672
H       4.12189801     -0.49387135     -0.00008680
H       0.81272321      2.08557961     -0.00007093
H       0.02686893     -1.92370385      0.00002049
H      -2.36954189     -1.72589702     -0.00025109
H      -1.90496992      1.18995735     -0.00027150
H      -3.45196175      0.33965135     -0.00091937
