15
b3lypvtz=-216898.24533941
O       3.43416886      0.31314451     -0.81826280
C       2.72716422     -0.73151203     -0.15346909
C       1.36086289     -0.37277196      0.22286964
C       0.24970844     -0.05314571      0.55411679
C      -1.10934557      0.32044197      0.92473655
C      -2.10556998      0.14146177     -0.22033447
O      -3.38086443      0.53408981      0.27442426
H       3.35737151      1.11039921     -0.28452897
H       2.71375823     -1.56890493     -0.85307951
H       3.27111837     -1.06674481      0.73821925
H      -1.44379562     -0.27887816      1.77567858
H      -1.13629908      1.36361450      1.25065674
H      -1.80019726      0.75851510     -1.07180151
H      -2.10787220     -0.90478640     -0.54410451
H      -4.03010838      0.43497713     -0.42722096
