15
b3lypvtz=-212129.33544237
N       2.39998257     -0.69581967      0.84690775
C       2.19346631      0.19858703     -0.02946689
N       1.01786263      0.50803769     -0.69685664
C      -0.10574907     -0.36462928     -0.69096817
C      -1.24865511     -0.02403109     -0.06030696
N      -2.32500122     -0.89457013      0.10109690
N      -1.47821838      1.22978707      0.48894114
H       1.54895964     -1.23505216      1.01700990
H       3.01567295      0.85735337     -0.31271493
H       1.14175101      1.09477962     -1.50908405
H      -0.02419668     -1.32140368     -1.19497368
H      -3.21825355     -0.47261738     -0.11331179
H      -2.21027248     -1.77548476     -0.37638419
H      -1.95172330      1.19583963      1.38080867
H      -0.64020332      1.79234174      0.52414494
