15
b3lypvtz=-216885.37753601
C       0.99730826     -0.64246790     -0.97403602
O       2.11389464      0.03654647     -0.35571471
C       1.23906607      0.68218945      0.59725582
C      -0.00001764      0.00026740      0.00008847
C      -1.24211637      0.77504717     -0.46222511
O      -2.11382921     -0.03772666      0.35621145
C      -0.99428000     -0.81467764      0.83918377
H       1.09003076     -1.73022519     -0.90186592
H       0.87770883     -0.35920987     -2.02405265
H       1.26659192      1.77191356      0.50376306
H       1.47937568      0.40197446      1.62715591
H      -1.48186426      0.68723747     -1.52610944
H      -1.27397583      1.82913885     -0.17083660
H      -1.08278775     -1.87091860      0.56787085
H      -0.87530509     -0.72918896      1.92341110
