15
b3lypvtz=-214492.25905678
C      -2.78858096     -0.49289846     -0.48879370
N      -1.90063189      0.33592468     -0.15573951
C      -0.87607614     -0.10396372      0.78349079
C       0.50628995      0.14981842      0.23141871
C       0.90663361      1.54476905     -0.13979507
N       1.24879703     -0.88196071      0.14844281
O       2.54107985     -0.57133808     -0.32409176
H      -3.56572855     -0.18914471     -1.18663874
H      -2.82909294     -1.52156037     -0.11140105
H      -0.96511003     -1.16157141      1.05453491
H      -0.99736607      0.49761261      1.69222108
H       1.57530536      1.53867214     -0.99876972
H       1.44657744      2.01394071      0.68880965
H       0.02391309      2.14143146     -0.36138421
H       2.95587525     -1.43846460     -0.36280221
