13
b3lypvtz=-239469.22995983
C       0.78177802     -0.54881097      0.40326865
C       2.06863879     -0.24446439      0.21371063
O       2.45639376      0.92597906     -0.39869585
C      -0.33281218      0.28078579      0.00496874
C      -1.61813363     -0.04481179      0.20466047
O      -2.01423466     -1.18882202      0.80221603
O      -2.69673231      0.70811348     -0.15479794
H       0.56861137     -1.48902156      0.89245461
H       2.86553556     -0.90395305      0.53283473
H       3.41429868      0.96054014     -0.44134441
H      -0.12344706      1.22247090     -0.48421832
H      -2.97781991     -1.19571988      0.83021468
H      -2.39207644      1.51771429     -0.57794828
