13
b3lypvtz=-213766.14459531
C      -2.35749008      0.44929989     -0.18481405
N      -1.47068308     -0.11903099      0.50163679
C      -0.25905131     -0.58882988      0.02544162
O      -0.07039886     -1.74341459     -0.28919152
C       0.88403632      0.42251795      0.00528375
C       2.26225037     -0.17308541      0.05242897
N       0.57727090      1.64720615     -0.11785259
H      -2.26457731      0.63019065     -1.25726557
H      -3.27218303      0.78156779      0.30095322
H       3.02143749      0.60430048     -0.02094151
H       2.39081024     -0.89216191     -0.75660964
H       2.40424728     -0.72726837      0.98240450
H       1.41260208      2.23019225     -0.19002895
