18
b3lypvtz=-181879.70903134
C      -1.73306559     -1.03585607      0.05158013
C      -0.53090960     -0.11048635      0.05257013
C       0.78088245     -0.82891127      0.27923410
C       0.40332268     -0.32787616     -1.11335339
N       1.57355143      0.55116707     -1.15436295
C       1.97292420      0.12231763      0.21946528
C      -0.82176443      1.26213520      0.61882520
H      -2.08544756     -1.22331581      1.06906864
H      -2.56095634     -0.59831175     -0.51172081
H      -1.49624134     -2.00118103     -0.39942380
H       0.81643011     -1.84563661      0.64353242
H       0.10583513     -0.88426574     -1.99400597
H       1.35522793      1.53804869     -1.24749565
H       2.00886250      0.91008028      0.97722423
H       2.93673365     -0.38825298      0.20137271
H       0.03383251      1.93426285      0.55947429
H      -1.11225525      1.19396216      1.67019136
H      -1.64696245      1.73211990      0.07782409
