18
b3lypvtz=-181924.94453897
C       1.84196289     -1.24374220     -0.03888078
C       0.50136089     -0.58273132     -0.01333137
C       0.24037947      0.73305868     -0.00157987
N       1.13943196      1.79868320      0.06271230
C      -1.23544178      1.02414055      0.10422231
C      -1.88557172     -0.34604399     -0.17392540
C      -0.77464158     -1.38210356      0.11023313
H       2.08412320     -1.71231712      0.92178381
H       2.65025195     -0.54550712     -0.26719103
H       1.87782300     -2.03813563     -0.79059336
H       2.09434408      1.56235998     -0.16223541
H       0.84340957      2.62019976     -0.44420059
H      -1.56210889      1.79575559     -0.60034421
H      -1.47146617      1.40000985      1.10624841
H      -2.17487640     -0.40463889     -1.22426658
H      -2.78457096     -0.51247079      0.41924480
H      -0.87532627     -1.81344496      1.11545219
H      -0.81247722     -2.22617401     -0.58537133
