14
b3lypvtz=-224579.37611496
C      -1.75970345      1.26284801      0.03341863
C      -1.23139346     -0.14144746      0.01090640
N      -2.15591207     -1.15841006     -0.07228591
N       0.00939115     -0.47190526      0.00511291
O       0.82055538      0.69705223     -0.03861116
C       2.15852688      0.40458738     -0.01965272
N       2.74304529     -0.70421051      0.02956874
H      -2.84432722      1.27402935      0.12524041
H      -1.31649467      1.82052371      0.85673910
H      -1.48330760      1.77693813     -0.88743027
H      -3.03929577     -1.00047136      0.38304277
H      -1.78422984     -2.08833095      0.04946497
H       2.69824643      1.34733969     -0.05639516
H       2.06489395     -1.46458090      0.05664131
