10
b3lypvtz=-246338.00705706
N      -3.03527803     -0.11963055      0.05943897
N      -1.88148555     -0.38777414     -0.18761849
O      -1.08454015      0.76766741      0.21133265
C       0.24041073      0.54714989      0.17334608
N       0.79769933     -0.57816057      0.03720496
C       2.19209437     -0.59705544     -0.08040938
O       2.85161935      0.17082966     -0.73615491
H      -3.57484686     -0.93536428     -0.25448370
H       0.76473339      1.49275467      0.31341652
H       2.63993342     -1.44207365      0.46424031
