13
b3lypvtz=-267987.50185895
C       2.44660687     -0.58996150      0.19753066
N       1.00054450     -0.61609221      0.16564119
C       0.25509016      0.47742497     -0.15490466
N       0.62769748      1.67564892     -0.38839061
C      -1.24116787      0.22535712     -0.18949922
F      -1.51556206     -0.94249105     -0.85965349
F      -1.72447289      0.06504986      1.07781493
H       2.81093911     -1.57289234      0.48692456
H       2.87812317     -0.33234983     -0.77546122
H       2.80553878      0.13316852      0.93351448
H       0.54030347     -1.50947092      0.13397453
H       1.63732416      1.78916290     -0.32687782
H      -1.76460088      1.04709656     -0.67199134
