14
b3lypvtz=-203679.49801864
N      -2.30299737      0.23679153     -1.05297966
C      -1.07102340     -0.04783717     -0.49811392
C      -0.66697859     -0.25423835      0.76619312
C       0.79207352     -0.54890286      0.74615597
C       1.68788487      0.55081907      0.18749539
C       1.11822622     -0.49266342     -0.72488052
O      -0.08124264     -0.20029041     -1.43526258
H      -2.95491570      0.66587177     -0.41649869
H      -2.24404694      0.73062940     -1.93059756
H      -1.28561469     -0.19639028      1.64538951
H       1.21772312     -1.29346567      1.40592894
H       1.28903733      1.55536396      0.14821259
H       2.75224585      0.47925358      0.36986336
H       1.74952844     -1.18504113     -1.26080594
