12
b3lypvtz=-254540.77466108
C       2.33129294      0.40732580      0.07138306
C       1.16859497     -0.15980634     -0.26577576
C      -0.12031392      0.23915524      0.21325956
C      -1.32077925     -0.28752647     -0.08782458
O      -1.47298335     -1.32352973     -0.93227991
O      -2.48984126      0.16277229      0.42001858
F      -0.17231926      1.29513714      1.09735567
H       3.26220161      0.04305905     -0.33765065
H       2.37924050      1.24109868      0.75764387
H       1.14901953     -0.99452281     -0.95624511
H      -2.41426636     -1.52520644     -0.99308332
H      -2.29984613      0.90204358      1.01319858
