14
b3lypvtz=-226992.0599317
C       0.48466970      1.27877402     -0.50003247
C       0.77151923      0.03296251      0.35949306
C      -0.50781222     -0.82778422      0.19446313
C      -1.25238515     -0.07382144     -0.88440367
N      -0.76693407      1.04409247     -1.23366070
O      -1.28911350     -0.98697069      1.37810919
O       1.93438746     -0.60011291     -0.16753799
H       0.38217681      2.19693456      0.08193330
H       1.29891005      1.43389781     -1.20882942
H       0.91117548      0.27652717      1.41687476
H      -0.24216250     -1.84034029     -0.11398268
H      -2.18231113     -0.44191568     -1.31030335
H      -1.70123483     -0.14318200      1.59403786
H       2.15911469     -1.34906130      0.39383896
