17
b3lypvtz=-217676.56916013
C      -2.14315756      0.90811407      0.08621939
C      -1.37216367     -0.37343082     -0.11742243
C      -0.38656841     -0.84340496      0.96819485
C       0.64703249     -0.88832999     -0.16995369
C       1.92983504     -0.09301952     -0.04156949
O       1.69632171      1.25720409      0.32227953
O      -0.28226185     -0.23287409     -1.07866442
H      -2.60044306      1.23220139     -0.85022310
H      -1.48968056      1.70295075      0.44848331
H      -2.94036505      0.75687216      0.81772233
H      -2.04403540     -1.17189182     -0.44970308
H      -0.16741088     -0.07641691      1.70883054
H      -0.61043341     -1.78684330      1.46071232
H       0.87693331     -1.90246288     -0.51600957
H       2.48016256     -0.15311725     -0.98914481
H       2.55730047     -0.53083285      0.73770107
H       1.07678529      1.60917893     -0.32811076
