16
b3lypvtz=-227754.49649267
C       2.77804949     -0.01821673      0.41197474
N       1.53210265     -0.71356708      0.13161347
C       0.51840650     -0.06984505     -0.24138907
O       0.45816459      1.28398909     -0.39318500
C      -0.76498222     -0.78478897     -0.62582779
O      -1.90783153      0.03680359     -0.42539426
C      -2.35489178      0.06744759      0.92551028
H       2.68363377      1.06774003      0.47752364
H       3.18779228     -0.39802509      1.34918506
H       3.50383984     -0.25574069     -0.37001934
H      -0.46379547      1.50107494     -0.60300931
H      -0.73924312     -1.00751008     -1.69462870
H      -0.83180607     -1.72551079     -0.07696327
H      -1.58908023      0.46493565      1.59949050
H      -2.63751396     -0.93435217      1.26317749
H      -3.22840775      0.71524077      0.95560256
