15
b3lypvtz=-170298.44634609556
C       3.29847669      0.12589729     -1.07084028
C       2.01826392      0.47278411     -0.90364038
C       1.07839933     -0.23321615     -0.06209308
C      -0.20773727      0.12687376      0.09906170
C      -1.14958914     -0.58083550      0.94499087
C      -2.40582053     -0.23840263      1.11164182
C      -3.64858075      0.09915936      1.27788544
H       3.95930035      0.69128535     -1.71290399
H       3.72155083     -0.73552936     -0.56805942
H       1.63537229      1.34440620     -1.42682019
H       1.45242715     -1.10636030      0.46579263
H      -0.58510732      0.99804964     -0.42622352
H      -0.78263169     -1.45586897      1.47588701
H      -4.43314837     -0.28871553      0.63613222
H      -3.95117548      0.78047271      2.06657404
