17
b3lypvtz=-191961.51398337
C       2.10663983      1.15722006     -0.25860608
N       1.57099316     -0.19976377     -0.28746476
C       0.31121266     -0.34959275      0.37205447
C      -0.51023627     -1.55174226      0.06343896
C      -0.95719726     -0.20992936     -0.47072822
C      -2.13501216      0.50579350      0.07574496
N      -2.75489839      0.31767891      1.16752176
H       1.44523620      1.82078914     -0.81790309
H       2.21730692      1.57137457      0.75415047
H       3.08219416      1.17198107     -0.74428909
H       2.24276443     -0.85555629      0.09234676
H       0.21354235      0.05561903      1.38106121
H      -0.11566669     -2.24847212     -0.66244150
H      -1.08981479     -1.99856882      0.86056938
H      -0.76326641     -0.03892078     -1.52090231
H      -2.49516945      1.32522082     -0.55087094
H      -2.36862830     -0.47313096      1.68846679
