19
b3lypvtz=-195154.20145743
C       1.11708432     -0.79803546      1.01402239
C       0.66442805     -0.32807467     -0.37326322
C       1.53647050      0.82544598     -0.87832973
C      -0.84987694      0.02125329     -0.42617159
C      -1.31958290      1.09888099      0.54744022
C      -1.66256195     -1.24946749     -0.30165227
O      -2.57093333     -1.43066840      0.46778855
H       2.15086060     -1.14551385      0.97838706
H       1.06882747      0.01068754      1.74495871
H       0.50359624     -1.61973452      1.38834915
H       0.80705439     -1.16503021     -1.06656896
H       1.47404811      1.69457814     -0.22128479
H       1.24052179      1.14065440     -1.88082469
H       2.58450299      0.52343610     -0.91944751
H      -1.04117567      0.36110176     -1.45458006
H      -1.20624908      0.77773803      1.58209539
H      -0.76328822      2.02564796      0.40955500
H      -2.37692092      1.31219621      0.39515422
H      -1.35680546     -2.05509580     -1.00542788
