17
b3lypvtz=-191969.11993786
C       2.67640479     -1.05351780      0.01579576
C       1.68913297     -0.30863580     -0.46070580
C       0.67738639      0.43744652      0.37634219
N       0.58589038      1.82630553     -0.06557738
C      -0.63454114     -0.33694658      0.35512522
N      -1.69035792      0.13787099     -0.14193809
C      -2.89180079     -0.67348050     -0.13564461
H       2.84605431     -1.16013080      1.08104665
H       3.35870021     -1.57752671     -0.64054077
H       1.54982013     -0.21870312     -1.53479386
H       1.03375324      0.43295170      1.41208338
H       0.13203247      1.84857239     -0.97384020
H      -0.05065790      2.32470503      0.54769795
H      -0.59266602     -1.34813519      0.78729034
H      -2.75374374     -1.66160135      0.32285697
H      -3.24001999     -0.80566534     -1.16212629
H      -3.68117738     -0.14170897      0.39958753
