18
b3lypvtz=-205208.79765515
C       2.62876124     -0.14266436     -0.27662979
C       1.30839936     -0.82619493     -0.09139725
C       0.14883339     -0.29914530      0.31669499
C      -0.05967773      1.16171798      0.66551983
N      -0.74387191      1.97840808     -0.35227161
C      -1.06314049     -1.18806639      0.44421833
O      -2.13350249     -0.82618635     -0.44385186
H       3.39320208     -0.60201936      0.35631974
H       2.97620794     -0.25401722     -1.30779263
H       2.59864681      0.92079333     -0.04850786
H       1.31765340     -1.89016599     -0.31913520
H       0.89142259      1.64162318      0.89161700
H      -0.65670366      1.22252681      1.57909503
H      -1.63754079      1.55190196     -0.56852905
H      -0.20633411      1.96883654     -1.21213145
H      -0.78248506     -2.23621697      0.29803668
H      -1.49667736     -1.09640908      1.44253960
H      -1.81029119     -0.93121693     -1.34485052
