12
b3lypvtz=-249543.6652649
C       1.74730213     -0.36063481      0.75872293
N       2.51385445     -0.85115164      1.46003729
C       0.77928491      0.22278552     -0.17360339
C      -0.53505189     -0.58463003     -0.20039655
O      -1.20010074     -0.54519605      1.02155125
O      -1.27977189      0.03042108     -1.23883859
O       0.50641551      1.55567513      0.23491115
H       1.21826433      0.19650303     -1.17616496
H      -0.34719139     -1.63821982     -0.41826076
H      -1.13974724      0.35911537      1.36166519
H      -2.17949402     -0.31175570     -1.19615843
H      -0.08376416      1.92708792     -0.43346514
