11
b3lypvtz=-238883.90730154
C      -2.51093686      0.10796036      0.15270599
C      -1.31991359     -0.48006227      0.04028190
N      -0.17908648      0.32666251     -0.01623423
N       0.88259469     -0.32832212     -0.11995522
C       2.05710674      0.46467910     -0.17939593
N       3.21293101     -0.00787291     -0.28205672
F       1.88333319      1.78178978     -0.11933793
H      -3.42122559     -0.47193143      0.20011109
H      -2.58199806      1.18599703      0.19849750
H      -1.17841140     -1.55550068     -0.01062652
H       3.15560635     -1.02339938     -0.31398994
