12
b3lypvtz=-228831.05244888
C      -3.19207148     -0.72187973     -0.00000585
C      -2.26519214      0.23528113     -0.00001686
N      -0.90576847     -0.06143463     -0.00006973
C      -0.07907816      0.90694562     -0.00007649
N       1.31627903      0.76282253     -0.00007587
C       1.81515286     -0.38567313      0.00004371
F       3.13844527     -0.52410015      0.00001893
H      -2.90800970     -1.76511030     -0.00005934
H      -4.24406911     -0.47635331      0.00004818
H      -2.55520247      1.28733707      0.00001137
H      -0.39534027      1.95238639      0.00005352
H       1.30462764     -1.34471350      0.00012744
