17
b3lypvtz=-191954.19299977
C       0.39029543      1.27916238      0.98334207
C       0.28947677      0.30332151     -0.19604292
C      -1.18854000     -0.05061443     -0.48703207
N      -1.81869452     -0.73547682      0.63653655
C       1.03500263     -0.93520628      0.10912380
C       1.64729339     -1.94656913      0.32418188
N       0.80825482      0.97404955     -1.40333955
H       1.43390094      1.49182419      1.21925779
H      -0.10567434      2.21258051      0.71587485
H      -0.09053826      0.85598707      1.86184046
H      -1.21541707     -0.61924999     -1.42776029
H      -1.70937046      0.89088160     -0.66365235
H      -1.46351526     -1.68038266      0.72344951
H      -2.81871945     -0.79997786      0.49856662
H       2.19608860     -2.83388236      0.51913213
H       0.84851304      0.31473418     -2.17361395
H       1.76164374      1.27881854     -1.23986451
