15
b3lypvtz=-191228.70638663
C       1.55070565      1.52269169      0.00159044
C       0.41391517      0.55468462      0.11125932
C      -0.84735954      0.93287637     -0.14855745
C      -1.97756912      0.07044758     -0.07499132
N      -2.91538126     -0.60119629     -0.03099205
C       0.76244540     -0.85265387      0.53005914
N       1.71502559     -1.45085817     -0.41647929
H       2.31279363      1.12553776     -0.66954446
H       1.22475871      2.49825240     -0.35499660
H       2.03114642      1.65189239      0.97602620
H      -1.06407808      1.95439417     -0.43676605
H       1.26045238     -0.79781292      1.50283140
H      -0.15141663     -1.43725123      0.66874157
H       1.23426762     -1.73267914     -1.26277015
H       2.12431806     -2.28713837     -0.01919270
