12
b3lypvtz=-249739.94500745
C      -0.04539010     -0.07792035     -0.00202825
N       0.61053815     -1.17857874      0.05759055
N       1.93647235     -1.08786054     -0.30609481
C      -1.47392378     -0.07999758      0.35334499
N      -2.19304544      0.94700226      0.27486594
F      -1.93456029     -1.26962846      0.77764900
N       0.50240542      1.15416134     -0.34179551
H       2.42002667     -1.91650100      0.00652263
H       2.39460510     -0.24575362      0.03911928
H      -3.15042014      0.77135705      0.56917630
H       1.13393291      1.11079369     -1.13115632
H      -0.20064086      1.87292595     -0.44221110
