12
b3lypvtz=-252144.29311385
C      -2.46182252     -0.32582447     -0.00005041
O      -1.07087837     -0.64488243      0.00021129
C      -0.19841403      0.37941484      0.00023111
N      -0.41051715      1.62639423      0.00016941
C       1.23223263     -0.09777328      0.00024729
N       2.25910556      0.60734226     -0.00030078
F       1.33930385     -1.43134936     -0.00012355
H      -2.73271188      0.24121554      0.89314353
H      -2.98376581     -1.27762459     -0.00006074
H      -2.73239517      0.24106950     -0.89343745
H      -1.39365818      1.87901037      0.00006551
H       1.98636508      1.58939640     -0.00017721
