13
b3lypvtz=-239491.81851876
O       2.94680782      0.12424567     -0.42384718
C       1.77289073      0.07518646     -0.21458539
O       1.04228824      1.20855370     -0.12059236
C      -0.36267676      1.20521324      0.19889345
C      -1.03273148     -0.04843689     -0.31536984
C      -0.25631632     -1.22779533      0.22437531
O       1.14381597     -1.11532832     -0.09630807
H      -0.76028678      2.11106933     -0.25401535
H      -0.46663242      1.28790895      1.28431718
H      -2.06971438     -0.09033692      0.02197899
H      -1.03084768     -0.05976845     -1.40709731
H      -0.35358695     -1.29638221      1.31144624
H      -0.57300997     -2.17412924     -0.20919567
