12
b3lypvtz=-179553.64169642
C      -2.99041657     -0.53131798      0.95663682
C      -1.93171411     -0.18448128      0.51184455
C      -0.66277575      0.20049277     -0.04098899
C       0.60861998      0.07186558      0.75515751
N       0.00027460      1.39246181      0.51879162
C       1.82536717     -0.30070587      0.09100830
C       2.85325953     -0.59359273     -0.45598437
H      -3.92765132     -0.83026901      1.35501354
H      -0.55613614      0.02721245     -1.10553905
H       0.51295365     -0.26615780      1.77952384
H       0.50727494      1.87302284     -0.21857423
H       3.76094399     -0.85853078     -0.93833406
