13
b3lypvtz=-211356.67132411
C      -2.52808571      0.36709013      0.13068670
N      -1.49109165     -0.59265350     -0.19188619
C      -0.17033856     -0.21641278     -0.07452656
C       0.41230976      1.03381206     -0.07765014
N       1.74388099      0.75486261      0.01554384
H       2.51862010      1.39551122      0.04441249
N       1.97418289     -0.55402522      0.08168747
N       0.81715474     -1.15199015      0.02946254
H      -2.43758823      0.78469518      1.14264303
H      -2.50725583      1.19625248     -0.57990078
H      -3.49966768     -0.11489899      0.03966056
H      -1.64790304     -1.53014090      0.14353997
H       0.02515423      2.03276986     -0.13908093
