14
b3lypvtz=-227003.74048718
C      -2.55585332     -0.18825719      0.00019879
O      -1.20376154     -0.63415258      0.00007414
C      -0.23729603      0.30243534     -0.00008845
N      -0.34245020      1.56580899     -0.00023270
C       1.15291540     -0.33706857      0.00000295
C       2.32308392      0.61027728      0.00005628
O       1.26898468     -1.53725121      0.00027352
H      -2.77672624      0.40240553     -0.89237427
H      -3.16555279     -1.08678623      0.00037145
H      -2.77648840      0.40258706      0.89271118
H      -1.30468224      1.89584216     -0.00021521
H       2.28139716      1.26388113      0.87204280
H       3.24378302      0.03286710      0.00021561
H       2.28164156      1.26381219     -0.87199110
