14
b3lypvtz=-203697.03916119
C       2.70160750     -0.22842454      0.04929874
C       1.49597578      0.06832822     -0.41981712
C       0.28314762      0.26592303      0.41948930
C      -0.63350167      1.48807027      0.09240944
N      -1.70018383      0.53134206     -0.21495043
C      -0.97090077     -0.59514219      0.05285604
O      -1.22663917     -1.76714921      0.01534502
H       2.88665248     -0.33869893      1.11115551
H       3.54438970     -0.37830890     -0.61202276
H       1.35043396      0.16181118     -1.49267570
H       0.51814326      0.18196596      1.48035598
H      -0.30914180      2.08359806     -0.76171143
H      -0.84357048      2.14081298      0.94052719
H      -2.66823657      0.64906603     -0.47255779
