17
b3lypvtz=-217714.75076473
C       3.07819543      0.34427550      0.11632942
C       1.64415110      0.03249300      0.54173528
C       0.83972361     -0.66329015     -0.55847338
C      -0.59768717     -0.99328751     -0.15867469
C      -1.51225364      0.21904942     -0.08219743
O      -1.23671570      1.31828213     -0.46966661
O      -2.74238967     -0.01904804      0.45212014
H       3.63217802      0.83400081      0.91848778
H       3.61964995     -0.56551216     -0.15369886
H       3.09402812      1.00840742     -0.75021138
H       1.65848083     -0.60346774      1.43338957
H       1.13899773      0.95803944      0.82452367
H       0.81791580     -0.03125296     -1.44851437
H       1.34227762     -1.59264236     -0.84072211
H      -1.04726117     -1.67973026     -0.88423800
H      -0.62001019     -1.51360876      0.80511819
H      -2.81812067     -0.94176477      0.72223778
