16
b3lypvtz=-204427.40312309
C      -2.32487564      0.22455646      0.42675349
C      -1.33538216      0.52780697     -0.64860092
N      -1.95156091     -0.79920166     -0.55589856
C       0.11873499      0.64152300     -0.38083430
C       0.94958450     -0.38092473     -0.19773210
C       2.41046247     -0.23031563      0.08906121
O       2.79236807     -0.84942735      1.32043747
H      -1.96586091      0.03881491      1.43108393
H      -3.30550256      0.68203348      0.36395027
H      -1.70039246      1.19110677     -1.42808333
H      -2.67577825     -0.90623918     -1.25693075
H       0.50312574      1.65804566     -0.33980939
H       0.56074190     -1.39276204     -0.23952765
H       2.69415979      0.82904169      0.07624032
H       3.00339420     -0.73915794     -0.67421146
H       2.22678123     -0.49490037      2.01410177
