19
b3lypvtz=-192744.32393208
C      -1.59075080      1.17414661     -0.63184103
C      -1.37410167     -0.04581651     -0.12418608
N      -2.40901212     -0.86088311      0.33825745
C      -0.02834692     -0.73541266     -0.08712047
C       1.21814460      0.15250605     -0.23835718
C       2.47764425     -0.70599973     -0.33000050
N       1.39786295      1.14329145      0.82912663
H      -0.79955918      1.75123250     -1.08216738
H      -2.58310184      1.60630867     -0.64801916
H      -2.16920908     -1.47193722      1.10357457
H      -3.29136549     -0.39550206      0.48641377
H      -0.02861675     -1.50697690     -0.86520641
H       0.05673095     -1.27671340      0.86468864
H       1.12848399      0.71074281     -1.17417384
H       3.35665256     -0.07350829     -0.44930708
H       2.61022250     -1.29876746      0.58024767
H       2.42686840     -1.39777055     -1.17183919
H       0.54476075      1.67552333      0.95704551
H       1.58474291      0.67302846      1.70919310
