12
b3lypvtz=-223812.20298071
C      -1.59947851      0.42109625     -0.75331078
C      -0.48834218     -0.20899893      0.03592113
N      -0.47137948     -1.35569508      0.57931751
C       0.76413003      0.62774403      0.16621901
O       0.88096719      1.72554260     -0.31459523
N       1.78039224      0.09709406      1.02538645
N       2.72102113     -0.48311189      0.48109718
H      -1.89632432      1.36953083     -0.30287624
H      -1.26396288      0.65267542     -1.76538650
H      -2.46044010     -0.24401571     -0.80037795
H      -1.34919331     -1.85315396      0.42121279
H       3.38271018     -0.74870760      1.22739263
