15
b3lypvtz=-212074.171643
C      -2.38480209      0.04934266     -0.10819379
C      -0.98321583     -0.01687124     -0.57662691
N      -1.55010616      1.26208995     -0.11626299
C       0.11030960     -0.58663370      0.28760904
N       1.36806899      0.09001772      0.04206636
N       2.49743156     -0.61206694      0.11075568
N       3.52826105      0.09111170      0.21016510
H      -3.17199358     -0.04706645     -0.84568036
H      -2.64182803     -0.31722545      0.87803033
H      -0.82300083     -0.13303111     -1.64347124
H      -1.78977863      1.85072532     -0.90628416
H      -0.18664787     -0.50566726      1.33947035
H       0.27104516     -1.64137596      0.06382824
H       1.44591813      1.08227356      0.24981697
H       4.31033853     -0.56562279      0.20802937
