13
b3lypvtz=-216129.46783913
C      -1.80304954     -0.09499944      0.02637976
C      -0.42946406     -0.12338131      0.67708726
C       0.61591794     -0.40243760     -0.39748550
C      -0.09082529      0.95193374     -0.28812716
O      -1.35080152      0.91105335     -0.93707175
C       2.02268047     -0.40743158      0.03947644
O       2.43127276      0.13997333      1.04012934
H      -2.57761514      0.32718717      0.66685414
H      -2.16303312     -1.00213664     -0.46158886
H      -0.18568136     -0.22043575      1.72288495
H       0.36446547     -1.02356405     -1.24894366
H       0.44583942      1.88543843     -0.20398491
H       2.72029396     -0.94119964     -0.63561007
