16
b3lypvtz=-181081.20692185
C      -1.43095762      0.96652161     -0.08265727
C      -0.78252740     -0.22588145     -0.82925686
N      -1.34467725     -1.11006951      0.28100425
C      -0.71123744      0.09305782      0.97501827
C       0.48485759      0.00486089      0.01166389
C       1.78108076     -0.71808997      0.08826869
C       1.73269102      0.78835567     -0.17568068
H      -2.51716062      0.94872381     -0.03661732
H      -1.01840446      1.95460896     -0.27343542
H      -0.86807722     -0.49584321     -1.88065173
H      -0.72855213     -1.91789825      0.39940331
H      -0.71238282      0.20088860      2.05853027
H       2.14360062     -1.04319016      1.05528238
H       2.07299135     -1.35882333     -0.73420464
H       2.06076486      1.44536125      0.61973579
H       1.99064977      1.12972427     -1.17011893
