13
b3lypvtz=-213785.20058339
C       2.32456003      0.35251985     -0.16956028
C       0.87533336      0.03750124     -0.12691655
N      -0.09907724      0.80751408      0.24388184
C      -1.24402953      0.03940860      0.09860760
N      -2.48707975      0.60060495      0.35722899
C      -0.89650231     -1.18793120     -0.36205803
O       0.48166322     -1.19336363     -0.51057392
H       2.89029281     -0.32378441      0.47393471
H       2.71608483      0.24809967     -1.18308452
H       2.47679184      1.37449649      0.16675812
H      -3.19419742     -0.05521200      0.64992718
H      -2.42332379      1.38600135      0.98741073
H      -1.42051605     -2.08605499     -0.62545587
