17
b3lypvtz=-194396.43155892
C      -3.11283031      0.27101342      0.55111096
C      -2.15851350     -0.34722662     -0.48075624
C      -0.75239130      0.14201148     -0.33246350
C       0.30964790     -0.63078755     -0.09584705
C       1.70561082     -0.16342905      0.05940096
C       2.01903996      1.31685195     -0.04984863
O       2.58950074     -0.97227158      0.27302526
H      -3.11869537      1.36045629      0.48121226
H      -2.81806060      0.00286008      1.56637634
H      -4.13323307     -0.07876416      0.39072444
H      -2.51477920     -0.09069151     -1.48466065
H      -2.17977283     -1.43621322     -0.40795814
H      -0.61846966      1.21698530     -0.41900313
H       0.19854043     -1.70601817     -0.00148139
H       3.08628170      1.45822459      0.09828699
H       1.73552055      1.70511416     -1.02997856
H       1.47019675      1.89002359      0.69977508
