17
b3lypvtz=-215253.31392973318
C      -2.13369881     -0.15290776     -0.84632900
C      -0.65095143     -0.40415881     -1.17245532
C       0.22467017     -0.31246350      0.03236437
N       0.26815042     -1.31978633      0.86132989
O      -0.36085490     -2.42133110      0.79103609
C       1.04225790      0.90141369      0.34988319
N       2.01490895      1.17613141     -0.71159851
H      -2.49355672     -0.88922929     -0.12899838
H      -2.73858268     -0.23165590     -1.75057904
H      -2.28608583      0.84407998     -0.42853012
H      -0.29085723      0.31093841     -1.91186738
H      -0.54971172     -1.40802117     -1.59088792
H       0.88659310     -1.20266038      1.67434950
H       0.38090862      1.77163867      0.41050851
H       1.48641559      0.78078163      1.35043618
H       2.45174904      2.07937101     -0.57614787
H       2.74864552      0.47785944     -0.71874754
