17
b3lypvtz=-215275.84741843
C      -3.11347026     -0.20617608     -0.00000830
O      -1.82772459      0.38081805      0.00000257
C      -0.78259019     -0.55990244     -0.00000284
C       0.55840541      0.14506346      0.00000019
N       0.70699542      1.40131752     -0.00000126
C       1.77057427     -0.77325714      0.00000626
N       3.07449280     -0.13296745     -0.00000455
H      -3.83788171      0.60574890     -0.00000317
H      -3.27155859     -0.82624300      0.89049243
H      -3.27155138     -0.82622536     -0.89052261
H      -0.84648244     -1.21506550     -0.88223417
H      -0.84648219     -1.21507575      0.88222086
H      -0.20473784      1.86074038     -0.00000388
H       1.70156077     -1.43557113      0.87013058
H       1.70155633     -1.43559196     -0.87010171
H       3.13566763      0.48652685     -0.80108718
H       3.13566455      0.48655864      0.80105377
