19
b3lypvtz=-195135.59283969
C      -1.60773821      1.36234067      0.09713167
C      -0.46864725      0.71193499     -0.65243783
C      -0.29634983     -0.79375490     -0.67853413
O      -1.12877807     -1.60751087      0.10836371
C       0.71783147      0.05274246      0.03774949
C       0.78354391     -0.00105129      1.55008672
C       2.07146500      0.21321431     -0.62553628
H      -1.32290960      2.34683173      0.47453454
H      -1.93540072      0.76252636      0.94418722
H      -2.46991107      1.50338191     -0.55955462
H      -0.22163319      1.20994436     -1.58441129
H       0.01076924     -1.25410284     -1.61404384
H      -1.98876295     -1.66916532     -0.31945875
H       1.48397716     -0.77692487      1.86827817
H      -0.17870412     -0.22947163      2.00004654
H       1.13888867      0.95018762      1.95416600
H       1.98839451      0.22760288     -1.71361696
H       2.74112510     -0.60662438     -0.35241319
H       2.54717296      1.14841980     -0.31803918
