14
b3lypvtz=-229578.2896448
C      -1.22139238      1.72877166      0.17605855
N      -0.16466249      1.15224692     -0.21241228
C       0.10128664     -0.18661243      0.10284792
C      -0.77421738     -1.19184066     -0.03825526
F      -2.09183188     -0.97697661     -0.28890410
N       1.41838428     -0.42021994      0.52356869
C       2.51175516      0.06773295     -0.31913697
H      -1.97160459      1.26285348      0.81591619
H      -1.39604592      2.75560679     -0.13700191
H      -0.51902346     -2.23999748      0.01131615
H       1.54832948     -1.38275773      0.80071581
H       2.39747773      1.13692798     -0.47333815
H       3.45433743     -0.10847828      0.19766436
H       2.55042338     -0.41885064     -1.30210701
