12
b3lypvtz=-223821.31827745
C       2.46844290      0.31228290     -0.00000619
O       1.43214184     -0.67240280      0.00001133
C       0.18401832     -0.18803024      0.00000788
C      -0.38484651      1.06512448     -0.00000206
N      -1.74089806      0.90652074      0.00002408
N      -2.04068587     -0.35004109     -0.00001703
N      -0.86697480     -1.03530588      0.00001471
H      -0.85685532     -2.04138388     -0.00003780
H       3.40564257     -0.23599585     -0.00000907
H       2.40472627      0.93741625     -0.89296089
H       2.40474222      0.93743146      0.89293891
H       0.07562444      2.03558790      0.00003713
