11
b3lypvtz=-241304.79465631
C       2.35530408      0.44328910      0.50964376
C       0.98146282      0.02262244      0.29991344
C      -0.14661794     -0.35098977      0.11815167
C      -1.49198451     -0.85955686     -0.11903129
O      -1.69188881     -1.99950196     -0.49088786
N      -2.47800589      0.04861724      0.11202448
F       2.42195376      1.76397750      0.94659119
H       2.83451515     -0.18498470      1.26398402
H       2.92197805      0.36821954     -0.42133229
H      -2.27432406      0.98274945      0.41863809
H      -3.43239265     -0.23444198     -0.03142306
