14
b3lypvtz=-227000.14930066
C      -1.39859412      0.80629390      0.32189313
C      -0.46521858     -0.26174055     -0.26842305
C      -1.22371759     -1.01697069     -1.35165130
O      -1.79809677     -2.05758108     -1.16753123
N       0.69534980      0.36440657     -0.87222394
C       1.82698713      0.08664469     -0.40923976
O       2.94010604      0.64485745     -0.93798180
H      -2.28325880      0.34135380      0.75719357
H      -0.87547883      1.36453066      1.09842059
H      -1.70876917      1.51209855     -0.44945050
H      -0.20631252     -0.98953739      0.51191200
H      -1.22481441     -0.51473593     -2.33981710
H       2.00567877     -0.59933796      0.42766797
H       3.71593904      0.31951798     -0.47056857
