17
b3lypvtz=-215301.22019298
C       3.26872263      0.19094453      0.00839711
C       1.96036821     -0.59829558      0.00522153
C       0.74646834      0.31321861      0.00219152
O      -0.42400649     -0.50503165     -0.00317626
C      -1.63978128      0.11668497     -0.00266658
N      -1.90451315      1.35886342      0.01308473
N      -2.62957025     -0.83791560     -0.06358592
H       3.34789998      0.82919657      0.89087516
H       4.12753360     -0.48033431      0.00904857
H       3.35071731      0.83087487     -0.87257487
H       1.91263692     -1.24776842     -0.87140236
H       1.90921647     -1.24814927      0.88157492
H       0.74268850      0.95606298      0.88851917
H       0.74894676      0.95567424     -0.88424159
H      -1.07750116      1.94137677     -0.00882860
H      -2.38983507     -1.74340418      0.30337308
H      -3.54188933     -0.49523495      0.18493839
