16
b3lypvtz=-202046.32804413
C      -1.91897177      1.04252994     -0.14730514
C      -1.11975329     -0.13364096      0.35930297
N      -1.61203647     -1.11116960      1.01901812
C       0.33463130     -0.15123633      0.07156301
N       0.79053109      0.83755709     -0.61440881
N       2.12476876      0.90378649     -0.85671035
C       1.18458195     -1.27765257      0.58531026
H      -2.96945538      0.92434094      0.11633534
H      -1.82823423      1.13897336     -1.22915283
H      -1.54517686      1.97463651      0.27728613
H      -2.61465094     -0.98784186      1.15274935
H       2.32197348      1.50730534     -1.63836416
H       2.63461683      0.02752839     -0.88613754
H       1.66330574     -1.82198563     -0.23638772
H       0.57290573     -1.97702792      1.14600652
H       1.98096407     -0.89610319      1.23074120
