15
b3lypvtz=-212134.6133367
C      -1.17770373     -0.60161170      0.07897245
C      -0.02840922      0.36436880     -0.15518437
N      -0.15785633      1.62116715     -0.25805710
C       1.35056866     -0.22839622     -0.27018217
N       1.48706432     -1.48185526     -0.04248034
N       2.30498672      0.67331160     -0.64572798
N      -2.42440307      0.12187460      0.32703656
H      -1.28339817     -1.21545224     -0.81764300
H      -0.88986702     -1.29595619      0.87126610
H      -1.15071316      1.85688038     -0.16891702
H       2.45521718     -1.78278251     -0.15100833
H       2.03119572      1.64365300     -0.61189394
H       3.27468921      0.44589424     -0.51671429
H      -2.57020376      0.27257835      1.31685449
H      -3.22116734     -0.39367400     -0.01861266
