12
b3lypvtz=-179594.21239902
C       2.45477064      0.76298777     -0.09070621
C       1.27277196      0.56337362     -0.06847713
C      -0.14361785      0.30759767     -0.03883024
C      -0.66931318     -0.82613086      0.85017125
C      -0.66832404     -1.00924134     -0.62424172
C      -0.99364919      1.46523426     -0.18385444
N      -1.69323025      2.37245055     -0.29780582
H       3.49998643      0.94743051     -0.11121041
H       0.07891801     -1.33625777      1.43796802
H      -1.60995290     -0.64470502      1.34870157
H      -1.60834434     -0.95473141     -1.15313167
H       0.07998474     -1.64800800     -1.06858321
