13
b3lypvtz=-237088.64905714
C      -0.16435473      0.54735571      0.58777325
C       1.24393709      0.45583628      0.02436696
N       2.23457201      0.45098237      0.80482324
O       1.35810479      0.42916924     -1.32874312
C      -1.12802517     -0.47235374      0.03646746
N      -1.73174428     -1.41231573      0.61782217
O      -1.33217715     -0.27784334     -1.30278611
H      -0.55798599      1.54112633      0.35080523
H      -0.09358648      0.45363748      1.66617166
H       3.10682517      0.41918742      0.27752103
H       0.48568203      0.31219328     -1.73478611
H      -1.49522430     -1.46491815      1.60337216
H      -1.92602301     -0.98205714     -1.60280781
