15
b3lypvtz=-193593.07538754
C      -2.51423559     -1.47642329     -0.08087164
C      -1.68141523     -0.63502336      0.11663951
C      -0.66903295      0.40511204      0.33281760
C      -1.17732968      1.77112456     -0.17581907
C       0.64584755      0.02064832     -0.30486808
C       1.77337223     -0.12436776      0.38271425
O       2.99850189     -0.45463376     -0.11226095
H      -3.24657981     -2.22596543     -0.24784250
H      -0.50743069      0.48737317      1.41249880
H      -0.44421796      2.54629420      0.04715454
H      -1.33386775      1.74355593     -1.25469877
H      -2.12422821      2.03225916      0.29695155
H       0.63652010     -0.13756215     -1.37967691
H       1.81967668      0.01424880      1.45596640
H       2.93527741     -0.58641246     -1.06534673
