16
b3lypvtz=-204444.32997779
C       2.01372012     -0.63902399      0.01959104
C       1.25186079      0.27416210      0.97764634
C      -0.16587351      0.62127727      0.57626529
C      -1.06970796     -0.31953640     -0.18077615
N      -0.46641934      0.85623623     -0.82291691
C      -2.51162757     -0.27029322      0.15200858
O      -3.16221872      0.75019442      0.15779719
H       3.05376311     -0.73162204      0.33339821
H       1.99673594     -0.24090451     -0.99421769
H       1.59095431     -1.64483149     -0.00356424
H       1.22331369     -0.16805659      1.97766758
H       1.79230710      1.22070221      1.08137877
H      -0.69058871      1.24904121      1.29057207
H      -0.68608520     -1.28141034     -0.49645703
H      -1.19151763      1.56606647     -0.90747442
H      -2.97861643     -1.24200133      0.40479603
