15
b3lypvtz=-216926.98246207
C      -2.35789781     -0.36332960      0.63328017
C      -1.26656971     -0.82103364      0.03655012
C      -0.25789349      0.03582530     -0.68027884
O      -0.64612112      1.40029038     -0.62147896
C       1.12520360     -0.22718289     -0.04133375
C       1.59510803      0.73597922      1.01898191
O       1.76213242     -1.19504311     -0.38531702
H      -3.03884018     -1.03646525      1.13627235
H      -2.60315099      0.68936540      0.62671411
H      -1.02546345     -1.87770081      0.04368706
H      -0.17891122     -0.31134479     -1.71690859
H      -0.22910067      1.87271224     -1.34667034
H       0.80766388      0.90627812      1.75454573
H       2.48910243      0.34154043      1.49495254
H       1.81460131      1.70790900      0.57278751
