9
b3lypvtz=-209840.2442789
C      -0.59083161     -1.06506422      0.01574262
C       0.35264196     -0.05960150      0.00177120
N      -0.39494358      1.07834657     -0.01827840
N      -1.69941278      0.79679365     -0.01688968
N      -1.82099971     -0.49829681      0.00367024
C       1.76314834     -0.07405148      0.00534176
N       2.91606093     -0.08433238      0.00822999
H      -0.44457987     -2.13012284      0.03329210
H      -0.08108367      2.03632899     -0.03287983
