14
b3lypvtz=-201308.23374283
C       2.40165979     -0.90975549     -0.03789806
N       1.67345203      0.34425133     -0.06088339
C       0.30724486      0.39790957      0.02428518
N      -0.19287335      1.68556462      0.07411759
C      -0.49115465     -0.71097847      0.07401808
C      -1.89182315     -0.59311842      0.00381539
N      -3.04119064     -0.46137771     -0.05338119
H       2.27377684     -1.46234779      0.89926499
H       2.07460985     -1.54577687     -0.86038726
H       3.46027732     -0.69891176     -0.17471412
H       2.14235623      1.12876147      0.36307116
H       0.24976110      2.33985525     -0.55369339
H      -1.20007960      1.74513857      0.05226938
H      -0.06812462     -1.69515529      0.18781261
