18
b3lypvtz=-181920.09436137
C       1.58873596      1.55839526      0.04687966
C       0.38677782      0.67538976      0.03057900
C       0.32133386     -0.66302700     -0.01129640
C       1.41524248     -1.67681448      0.00699685
N      -1.00348212     -1.13111118     -0.18167938
C      -1.89404372     -0.00321992      0.15165825
C      -1.01544581      1.23313530     -0.11297341
H       2.51716015      0.99286268      0.12594410
H       1.55804616      2.26072934      0.88646360
H       1.65135174      2.16746458     -0.86274268
H       1.40099290     -2.27246632     -0.90966663
H       2.39407050     -1.21128075      0.09812617
H       1.29557251     -2.37314926      0.84322836
H      -1.20982729     -1.98402342      0.32094523
H      -2.18407741     -0.03310720      1.20921890
H      -2.80151314     -0.02691963     -0.45123665
H      -1.23363097      2.05129503      0.57729628
H      -1.17297461      1.62398321     -1.12684323
