18
b3lypvtz=-181913.78384372
C       2.13806298     -0.69270424      0.08370480
C       0.65376377     -0.52801946      0.05195334
C      -0.25862062     -1.43354329     -0.28533071
C      -1.65361937     -0.90036655     -0.14723339
N      -1.45691699      0.44855698      0.41468148
C      -0.01627052      0.77019342      0.45363063
C       0.35535852      1.96022754     -0.43832171
H       2.53309849     -0.48842696      1.08351218
H       2.43237627     -1.70383611     -0.19618815
H       2.63528010      0.00363534     -0.59713299
H      -0.04765430     -2.44633852     -0.60234155
H      -2.18128951     -0.88292082     -1.11047036
H      -2.25819679     -1.52450029      0.52313423
H      -1.97595044      1.14642011     -0.09651712
H       0.27861452      1.02644822      1.48214869
H       0.14089921      1.74069727     -1.48686562
H      -0.21324458      2.84597475     -0.14637922
H       1.41405125      2.21028063     -0.34847452
