14
b3lypvtz=-201249.73319321
C      -2.23345619     -0.90659844      0.14632573
C      -0.94967509     -0.99759385     -0.18267274
N      -0.00012579      0.03630394     -0.10836277
C       1.37869712     -0.21733744     -0.09859133
C       1.95055558     -1.39006202      0.16619171
N      -0.49663408      1.30257538     -0.07149504
N       0.35212749      2.19898505      0.10772712
H      -2.87742364     -1.75984750     -0.00406085
H      -2.66714622     -0.00009636      0.53872054
H      -0.52992348     -1.91585527     -0.56733737
H       1.95913304      0.66149377     -0.33250112
H       1.39881821     -2.26947541      0.46471834
H       3.02400518     -1.48054395      0.09410491
H      -0.17481512      3.07382911      0.07667088
