14
b3lypvtz=-227007.14774439
C      -1.21770341     -0.62585960     -1.34580370
C      -0.90967171     -0.04822211      0.00723114
O      -1.72868841      0.04456872      0.89132915
C       0.53485032      0.44933750      0.25963687
N       0.66178427      1.24764214      1.46414764
C       1.47907483     -0.76345335      0.34283267
O       1.73380390     -1.50322098     -0.56934004
H      -1.22275701      0.18319652     -2.08189310
H      -0.44047208     -1.32630137     -1.65268086
H      -2.19389528     -1.10446348     -1.33367100
H       0.85256989      1.00651463     -0.62562370
H      -0.15427406      1.08678356      2.04781244
H       0.68080952      2.23434626      1.24631000
H       1.92446922     -0.88076846      1.34971249
