18
b3lypvtz=-181912.01959456
C      -2.74435751     -0.50438155     -0.45684226
C      -1.62915400      0.04562170      0.03616192
N      -1.44279167      1.41752861      0.19964099
C      -0.47080199     -0.78738416      0.54383384
C       0.81430794     -0.52407494     -0.19501629
C       1.93315707     -0.06048111      0.35450553
C       3.21817501      0.18765246     -0.37392234
H      -2.86496887     -1.57643252     -0.48353191
H      -3.56834429      0.09924473     -0.81582197
H      -2.08270853      2.00184685     -0.31582317
H      -0.48628402      1.72373109      0.09950630
H      -0.74302571     -1.84005780      0.44811712
H      -0.32399978     -0.58093467      1.60822823
H       0.79799605     -0.73838707     -1.26132173
H       1.93965634      0.14807014      1.42213276
H       3.12736597     -0.04015875     -1.43634899
H       4.02670467     -0.42394922      0.03632568
H       3.53607432      1.22930821     -0.27445271
