13
b3lypvtz=-237102.36628874
N       0.92529004     -1.33973116     -0.16487639
C       1.03507549     -0.14361889     -0.56777554
O       2.14838512      0.42059132     -1.11066076
C      -0.06797616      0.88055370     -0.53046073
C      -1.40542288      0.61636516      0.17192983
N      -1.65216323     -0.63915165      0.59482632
O      -2.18685220      1.54426526      0.29142138
H       1.77434584     -1.89011252     -0.27576240
H       2.85940679     -0.23124656     -1.15574800
H       0.33312262      1.79789596     -0.09783566
H      -0.30749030      1.14391125     -1.56437098
H      -2.52225091     -0.81207341      1.06839905
H      -0.93327022     -1.34764845      0.51421387
