12
b3lypvtz=-252154.53596982
N       0.27893063     -0.21698581      1.42928105
C       0.38904296      0.11539063      0.04155551
C       1.57015507      0.77895766     -0.46425471
O       2.51701493      1.07571870      0.24723179
C      -0.69432331     -0.14205917     -0.73223647
N      -1.83880140     -0.73436361     -0.31672488
F      -0.69501135      0.12588913     -2.04251920
H       0.64789219     -1.14679241      1.60528926
H       0.87331262      0.41798524      1.95297284
H       1.56529219      1.03584667     -1.53761014
H      -2.66418389     -0.57117576     -0.87057099
H      -1.94932064     -0.73841128      0.68778594
