10
b3lypvtz=-274706.44538155
C       1.43455829      0.09384424      0.11594331
N       2.40005388      0.72554812      0.60217854
N       0.23840050     -0.25037013      0.72070095
C      -0.88148708     -0.18871834      0.12900201
O      -2.01040206     -0.58863240      0.73544663
O      -1.10884967      0.28422450     -1.09370548
F       1.56845615     -0.40280988     -1.13199797
H       2.17903475      1.02207594      1.54797532
H      -1.76676720     -0.91944444      1.61091710
H      -2.05299756      0.22428239     -1.29144091
