13
b3lypvtz=-216172.37678636
C      -2.31469698     -0.66944712     -0.00008107
C      -1.64828581      0.48597935      0.00013599
C      -0.18678824      0.68806951      0.00003933
O       0.27513678      1.81390360      0.00027900
C       0.82229774     -0.49535696     -0.00010356
C       2.27300239     -0.09405774      0.00004163
O       0.45773899     -1.64764960     -0.00020470
H      -1.81083605     -1.62276174     -0.00037170
H      -3.39754718     -0.66811012      0.00003543
H      -2.18481579      1.42855916      0.00041207
H       2.49394754      0.52393303     -0.87151564
H       2.89027982     -0.98827664     -0.00011074
H       2.49383978      0.52353829      0.87190896
