11
b3lypvtz=-236285.87603659
N       2.88471589      0.63628510     -0.00010048
N       2.09859210     -0.33335112     -0.00006304
C       0.74762068      0.05104271     -0.00004413
C      -0.12203104     -0.96487714     -0.00000564
O      -1.49196029     -0.94636939      0.00002115
C      -2.23489728      0.19599432      0.00001613
O      -1.82549184      1.31522468     -0.00001147
H       3.83436846      0.24132947     -0.00011650
H       0.49650770      1.10060467     -0.00006186
H       0.23704971     -1.98352478      0.00000754
H      -3.28960609     -0.10012351      0.00004229
