15
b3lypvtz=-219470.71679434
F       2.02636493      1.57465454      0.26442174
C       1.71422809      0.29941495     -0.21406115
C       0.24919112      0.03249847     -0.03593668
C      -0.96208251      0.79175553     -0.61982104
N      -1.64331294     -0.32925516      0.18742497
C      -0.55061408     -1.23319668     -0.41391266
C      -0.58738874     -0.00669933      1.26140700
H       1.99892605      0.26214664     -1.26893781
H       2.31910012     -0.42104280      0.34295993
H      -1.14138584      0.72402002     -1.69302292
H      -1.16844529      1.79074280     -0.23922094
H      -0.37471370     -2.14265447      0.16075405
H      -0.69979548     -1.44957113     -1.47185782
H      -0.76628052      0.93341848      1.78064574
H      -0.41369119     -0.82603187      1.95925760
