14
b3lypvtz=-180382.05448425
C       2.14864904     -1.24924365     -0.19838979
C       1.25479304     -0.50447279      0.43349621
C       0.00002641      0.04659323     -0.21824842
C      -0.00021946      1.51613377     -0.14510285
N      -0.00058846      2.66407318     -0.06539798
C      -1.25459020     -0.50482220      0.43349684
C      -2.14825023     -1.24982235     -0.19839394
H       2.04491044     -1.50210994     -1.24668860
H       3.02045526     -1.63415887      0.31292774
H       1.38332951     -0.25932612      1.48203672
H       0.00006975     -0.22861656     -1.27541409
H      -1.38319945     -0.25969719      1.48203264
H      -3.01996583     -1.63495184      0.31291796
H      -2.04445181     -1.50264167     -1.24669844
