13
b3lypvtz=-211299.82082948
C      -1.55692451      0.29607467      1.14670400
C      -1.84836047     -0.11048380     -0.23051123
N      -0.90940846     -0.92864553      0.59159630
C       0.45223620     -0.81084457      0.26891305
N       0.99530574      0.25708904     -0.16790469
N       2.37331349      0.04074411     -0.39413462
N       2.91045719      1.06887585     -0.81845391
H      -0.91453123      1.15535680      1.28507862
H      -2.26076776      0.08449865      1.94027408
H      -1.40377552      0.47346303     -1.02512919
H      -2.76974944     -0.62617573     -0.46521563
H       1.03374595     -1.72002806      0.42027723
H       3.89845884      0.82007551     -0.95247328
