19
b3lypvtz=-171837.69198894
C       2.86040332     -0.52096839     -0.18773127
C       1.56126621     -0.76899792     -0.29393649
C       0.51028408     -0.36886105      0.70883108
C      -0.52940049      0.57061528      0.12671600
C      -0.05908234      1.98680609     -0.07493391
C      -1.77081327      0.20481864     -0.20210754
C      -2.41401067     -1.14405790     -0.08375535
H       3.26987686      0.00882909      0.66478869
H       3.56295388     -0.84053791     -0.94630661
H       1.19306783     -1.29966682     -1.16764851
H       0.99749718      0.11650160      1.55997799
H       0.02957027     -1.26999017      1.09386432
H       0.23290585      2.44060850      0.87749868
H      -0.83448583      2.60777531     -0.52253468
H       0.82336195      2.02203748     -0.71917403
H      -2.41736054      0.97553224     -0.61408575
H      -1.76020905     -1.89860364      0.34979732
H      -2.73139797     -1.50851255     -1.06530055
H      -3.31688127     -1.09038587      0.53152062
