13
b3lypvtz=-213771.41321506
C      -1.70690302     -0.23869927      0.07258226
C      -0.21613446     -0.24291808      0.02585712
C       0.70038155      0.78486978     -0.08324137
C       1.96896221      0.17621288     -0.07614916
N       1.86309591     -1.14493677      0.03023323
N       0.54501553     -1.37463267      0.08988937
O       0.48228291      2.13172342     -0.18116955
H      -2.14137989      0.19182705     -0.83352356
H      -2.08572726      0.33097528      0.92528018
H      -2.09748629     -1.25259199      0.16508940
H       2.93461260      0.64860735     -0.14372645
H       0.21587437     -2.32002444      0.17394873
H      -0.46259416      2.30958744     -0.16507018
