16
b3lypvtz=-204456.54586787
C      -1.18506370      0.63731179     -0.42961701
C       0.26909017      1.06385456     -0.22741928
C       1.17192082     -0.14355925     -0.45349311
C       0.62134071     -1.36713291      0.25846025
N      -0.54660307     -1.53921894      0.71371996
C      -1.54918172     -0.48723224      0.54317174
O       2.53063970      0.08224997     -0.08175571
H      -1.86357162      1.48176984     -0.29318726
H      -1.32125774      0.28955318     -1.45822416
H       0.40940505      1.42229764      0.79867379
H       0.55442407      1.87839877     -0.89382525
H       1.22176619     -0.36686241     -1.52405119
H       1.34805454     -2.16918307      0.40423312
H      -2.47682502     -0.97718916      0.23966549
H      -1.74401976     -0.08180851      1.54209964
H       2.55988137      0.27675073      0.86154896
