17
b3lypvtz=-241000.72913628
C       2.32528675     -0.71710100      0.05000684
C       1.41941083      0.37817229     -0.51020186
C      -0.02976023      0.32991026     -0.02828737
O      -0.67360529      1.46234311     -0.56271571
O      -0.11406494      0.35496593      1.40250358
C      -0.79180158     -0.93600170     -0.42907313
O      -2.16692235     -0.80348379     -0.08319742
H       2.03109132     -1.70915586     -0.29604323
H       3.35603009     -0.55588736     -0.26759324
H       2.30257709     -0.72271497      1.13953778
H       1.80759406      1.36277690     -0.23486990
H       1.40936726      0.35093082     -1.60197957
H      -1.62411698      1.28523670     -0.50896827
H       0.08126295      1.25745378      1.67899159
H      -0.75259809     -1.05996135     -1.51036415
H      -0.34759731     -1.81246812      0.04783814
H      -2.20075557     -0.71282365      0.87691094
