19
b3lypvtz=-192754.40691118
C      -2.91275859     -0.15810784      0.27293998
C      -1.54761220     -0.52017377     -0.30956847
N      -0.67827668      0.63679497     -0.32031154
C       0.52362329      0.59858019      0.09594654
N       1.31593242      1.72637959     -0.08008586
C       1.27426975     -0.57850593      0.69304113
C       2.00841462     -1.40609253     -0.37162343
H      -3.59976339     -1.00447484      0.20998057
H      -2.82200294      0.13196854      1.32121714
H      -3.34451778      0.68283753     -0.27032838
H      -1.68637699     -0.84990216     -1.34555892
H      -1.13883886     -1.38111854      0.23495839
H       2.02679145      1.89863393      0.61176249
H       0.79749834      2.54575678     -0.35906769
H       1.99736288     -0.20307548      1.42178841
H       0.58236792     -1.21364236      1.24446807
H       2.56767712     -2.22111265      0.09017371
H       2.70844034     -0.78527725     -0.93081763
H       1.30518729     -1.84012318     -1.08290952
