14
b3lypvtz=-180390.53312243
C      -1.54753421      1.48316333     -0.03450048
C      -0.42551929      0.74927356      0.00722479
C       0.95414406      1.22225631      0.05358681
C       1.76578977      0.14944393      0.01417931
N       1.03863607     -1.02761358     -0.09419629
H       1.41207902     -1.92551588      0.15531956
C      -0.33324712     -0.74273652     -0.01358616
C      -1.30839212     -1.65703682      0.04644342
H      -2.52688135      1.02913217     -0.08804647
H      -1.50556234      2.56329864     -0.01882858
H       1.26142670      2.25362512      0.07617001
H       2.84362969      0.11353840      0.02345435
H      -2.34164550     -1.35768946      0.12507594
H      -1.09565936     -2.71669420      0.02143979
