17
b3lypvtz=-215290.56114135
C       3.12687698     -0.07853969     -0.00007465
C       1.67332916     -0.53566293     -0.01401694
N       0.78460729      0.61649192      0.00775228
C      -0.47637152      0.44673517      0.02329972
N      -1.33002350      1.52768106     -0.04228466
C      -1.17735434     -0.90571848      0.05372957
O      -2.59736352     -0.83650215      0.03546710
H       3.80711607     -0.93241705     -0.01432132
H       3.33110342      0.51259951      0.89340220
H       3.33690514      0.54722766     -0.86822395
H       1.49725702     -1.19266303      0.84927003
H       1.50107674     -1.15236082     -0.90754549
H      -0.88332700      2.41646102      0.11989632
H      -2.23269119      1.40360694      0.38697037
H      -0.79857980     -1.51974548     -0.76992937
H      -0.90981728     -1.42023486      0.97814523
H      -2.87572167     -0.56008879     -0.84344242
