12
b3lypvtz=-226238.02836441
C       0.86651297     -0.91365504     -0.15771272
C       1.12454363      0.58076967     -0.24397377
O       2.16313961      1.16476369     -0.38130354
C      -0.27954001      1.25314478     -0.11409275
O      -0.48766552      2.43417018     -0.13535810
C      -1.26399125      0.10652825      0.03823416
N      -0.46506149     -1.05978310      0.46075009
H       1.64128970     -1.42458276      0.41060459
H       0.86073162     -1.34155419     -1.16709685
H      -2.05256869      0.34351625      0.74975147
H      -1.74067804     -0.09509668     -0.92830700
H      -0.36671251     -1.04822107      1.46850442
