19
b3lypvtz=-195154.73637788
C       2.20580003     -0.48800693     -0.02551186
C       1.21052999      0.59335726     -0.44869134
C      -0.25041744      0.39526451      0.03193864
C      -0.35763838      0.27997912      1.55330259
C      -1.09680963      1.57961849     -0.47961835
C      -0.79680971     -0.85100121     -0.64594125
O      -1.27049745     -1.80885194     -0.09245125
H       1.89324236     -1.48075274     -0.35525429
H       2.32950345     -0.52481316      1.05675673
H       3.18649154     -0.29116579     -0.46081780
H       1.54862359      1.56664823     -0.08217681
H       1.20463644      0.66989689     -1.54065641
H       0.15125806     -0.60653647      1.92747275
H       0.07766580      1.15925927      2.03211268
H      -1.40048507      0.20417209      1.86087716
H      -2.13935036      1.48268591     -0.17296011
H      -0.71027399      2.51528447     -0.07202190
H      -1.06741110      1.65350155     -1.56880181
H      -0.73578713     -0.81932256     -1.75724836
