14
b3lypvtz=-224620.10821299
N      -1.96950819      0.63176949     -0.47267342
C      -1.62562988     -0.63416507     -0.81400137
O      -2.42104682     -1.49205403     -1.14370785
C      -0.12691424     -0.95644138     -0.75507600
N       0.76577870      0.17465568     -0.58130659
C       1.65648857      0.27557502      0.46861189
N       2.63266803      1.07379093      0.61625939
H      -1.27672073      1.27596796     -0.13489372
H      -2.94532108      0.86839835     -0.42148098
H       0.00804979     -1.64472723      0.08056543
H       0.10445779     -1.52257342     -1.65917973
H       1.00686020      0.68930181     -1.41499206
H       1.43355803     -0.42661292      1.27308114
H       2.75727985      1.68711481     -0.19110613
