15
b3lypvtz=-214507.51865019
C      -3.62267596     -0.35225363      0.00004569
C      -2.32632596      0.39957259      0.00002868
C      -1.12792202     -0.19086142     -0.00005947
N       0.09182580      0.45500543     -0.00011612
N       1.24591460     -0.26346428     -0.00004393
C       2.35781060      0.34121766      0.00003515
O       3.53454844     -0.33205922      0.00007473
H      -4.23206101     -0.11433731      0.87752708
H      -3.45339903     -1.43042803     -0.00000661
H      -4.23212809     -0.11426380     -0.87736942
H      -2.38382765      1.48480539      0.00008536
H      -1.02419671     -1.26857895     -0.00011176
H       0.13035837      1.46480646     -0.00000845
H       2.50278089      1.41959815      0.00005362
H       3.32764974     -1.27692904      0.00003944
