11
b3lypvtz=-218009.46623673
N      -3.74023759     -0.39092618     -0.00004693
C      -2.66687643      0.03401832      0.00000947
C      -1.35821243      0.58168541      0.00001447
C      -0.24918216     -0.17912025      0.00000891
C       1.08950037      0.35128541      0.00000247
C       2.15862940     -0.44298910     -0.00001162
F       3.40025478      0.05045292     -0.00001573
H      -1.29163498      1.66307660      0.00002137
H      -0.35831631     -1.25809692      0.00000704
H       1.23524180      1.42492162      0.00000877
H       2.14087256     -1.52525783     -0.00001622
