15
b3lypvtz=-212075.91712963
C       1.99778392     -1.24223287     -0.43742842
C       1.58361866     -0.20520425      0.61914412
C       1.10359384      1.08157471      0.01125435
N      -0.06726867      1.51653887     -0.25711079
N      -1.20314834      0.80980247     -0.01582854
N      -1.29266326     -0.52623763      0.06301578
N      -2.47805707     -0.92558172      0.04637927
H       1.13943701     -1.54078584     -1.03797094
H       2.76061662     -0.84191733     -1.10729131
H       2.40660026     -2.13261207      0.04218809
H       0.81980020     -0.63082101      1.26613957
H       2.45211829      0.03627811      1.23807095
H       1.87611265      1.79833536     -0.25671699
H      -2.06064586      1.30139659     -0.24489224
H      -2.43033324     -1.94324041      0.11597309
