12
b3lypvtz=-200484.80979965
C      -2.26446074     -1.17905677     -0.61943268
N      -1.57042129     -0.12869380     -0.43539330
N      -0.23846198     -0.24545813     -0.30391635
C       0.55091265      0.89081950     -0.10054250
N       0.15160969      2.09416985     -0.01839860
C       1.94966672      0.56094459      0.01610633
C       3.10687587      0.25993949      0.10967689
H      -1.83442112     -2.18117019     -0.67730376
H      -3.33421009     -1.06430108     -0.72278012
H       0.20857935     -1.15387396     -0.35019729
H      -0.86218989      2.13135880     -0.12390005
H       4.13652084      0.01532170      0.19540420
