15
b3lypvtz=-191194.5077666422
C       2.73015857      0.15898424      0.31321283
N       1.78290421     -0.72403901      0.28907173
C       0.49473449     -0.39838835      0.23141042
N      -0.44529207     -1.37133000      0.20872928
C      -1.71357920     -0.99060177      0.15037967
C      -1.75009651      0.51586713      0.12392179
C      -0.23836771      0.92555408      0.17958938
H       2.55075619      1.23450997      0.28851750
H       3.75629473     -0.18227625      0.36035507
H      -0.14573125     -2.33767817      0.23682519
H      -2.52167005     -1.69749064      0.12890519
H      -2.31157539      0.92271141      0.96917907
H      -2.23934232      0.89377608     -0.77779823
H      -0.01076939      1.53957420      1.05565166
H       0.06157573      1.51082707     -0.69435523
