16
b3lypvtz=-204458.19724063
O      -1.47182416     -1.68939956      0.73997524
C      -0.48662509     -0.66639078      0.62448086
C       0.74351042     -1.12931232     -0.15266068
C       1.65301313      0.02053787     -0.52659137
N       1.39003221      1.25690780     -0.47429992
C       0.07125343      1.69154083     -0.01847423
C      -1.01828401      0.61344470     -0.00643080
H      -1.81423995     -1.88353022     -0.13940595
H      -0.19543306     -0.45626012      1.65677930
H       1.30748478     -1.87395303      0.41401421
H       0.42783053     -1.63367900     -1.07538318
H       2.64920080     -0.25445166     -0.87773555
H      -0.22941724      2.53006046     -0.64955194
H       0.20447401      2.11073183      0.98451417
H      -1.89839263      0.96411362      0.53543572
H      -1.33258316      0.39953960     -1.03486587
