12
b3lypvtz=-200531.46191618
N      -3.34479662     -0.74057071     -0.31118486
C      -2.45434443     -0.04087657     -0.11192383
C      -1.30901033      0.82713658      0.15014899
C      -0.04784110      0.04439264      0.41889350
N       1.04028802      0.35703801     -0.14833507
C       2.18336466     -0.40640823      0.18387488
N       3.33306003     -0.19256105     -0.28869129
H      -1.14342188      1.49964520     -0.69115481
H      -1.54160773      1.44146420      1.02697616
H      -0.12841081     -0.78334692      1.13268461
H       2.04034979     -1.22727445      0.89378950
H       3.29934639      0.60089230     -0.93281079
