17
b3lypvtz=-171048.04443346
C       2.80788878     -0.15273169      0.03108743
C       1.53494014     -0.28409610     -0.32532305
C       0.37970417      0.33089735      0.39107437
C      -0.61445147      1.26403043     -0.39821951
C      -1.78305585      0.38499622      0.05129741
C      -1.58381303     -1.01563570     -0.43943059
C      -0.81960518     -0.55865481      0.76903361
H       3.09637496      0.43258913      0.89698410
H       3.60740657     -0.62325739     -0.52625979
H       1.29674450     -0.88025110     -1.20208492
H       0.74274514      0.86034709      1.27257935
H      -0.63099342      2.27173726      0.01264759
H      -0.46189750      1.32931742     -1.47752623
H      -2.74773684      0.74334094      0.38078949
H      -1.08537406     -1.19761704     -1.38529993
H      -2.39206446     -1.70412280     -0.23041810
H      -0.93515546     -1.05305721      1.72372776
