17
b3lypvtz=-217717.87181488
C       2.12259165     -0.59066514     -0.59626702
C       1.43766599     -0.16550535      0.70421719
C       0.08145455      0.54046765      0.54126739
C       0.14251588      1.80887639     -0.32520919
C      -1.00095375     -0.42199305      0.08206145
O      -0.89245688     -1.61726456     -0.02599368
O      -2.17479559      0.21193113     -0.17035625
H       3.05999415     -1.10400131     -0.37689217
H       2.36214177      0.26414306     -1.23059454
H       1.49631416     -1.27673449     -1.16598228
H       2.09520701      0.51322000      1.25424920
H       1.29532403     -1.04343462      1.33569527
H      -0.24766520      0.85092305      1.54026238
H      -0.80178446      2.34829319     -0.30103044
H       0.36785529      1.57496437     -1.36580998
H       0.92581811      2.47096064      0.04662525
H      -2.80911773     -0.47516097     -0.42319558
