18
b3lypvtz=-181917.74645937
C      -2.13300598     -0.58841603      0.13131329
C      -0.80265368     -0.45148688      0.13454312
N       0.12914050     -1.43531481     -0.17422643
C       1.46530208     -0.88623492     -0.36359000
C       1.43192451      0.33331386      0.56488013
C      -0.03351665      0.81811778      0.48306546
C      -0.23540157      1.91507921     -0.57107265
H      -2.76904040      0.23040955      0.43167395
H      -2.61419032     -1.51408882     -0.15490286
H      -0.16701757     -2.20903336     -0.74644733
H       1.65614789     -0.58623729     -1.40313414
H       2.23078610     -1.61063252     -0.08147272
H       2.14700537      1.10189188      0.27330673
H       1.66851019      0.01993337      1.58240537
H      -0.36824169      1.20071425      1.44808037
H      -1.28804051      2.18311240     -0.65837010
H       0.10253210      1.58644955     -1.55604581
H       0.32618761      2.81261779     -0.30269736
