13
b3lypvtz=-190460.28935918
C      -2.09742679     -1.27231402     -0.14070389
C      -1.04008644     -0.71706962      0.44280007
C      -0.49817627      0.61943226      0.10189793
N      -1.13106273      1.59608575     -0.40552224
C       0.97034986      0.86084712      0.44424313
C       1.87079522     -0.16976411     -0.06375962
N       2.57476275     -0.98752433     -0.46216411
H      -2.63818798     -0.77919070     -0.93950961
H      -2.44722827     -2.25343824      0.14848283
H      -0.49689476     -1.27582347      1.19728035
H      -2.11685656      1.36808579     -0.54017713
H       1.08031164      0.90084795      1.53282812
H       1.25780034      1.83283062      0.04640316
