13
b3lypvtz=-192829.23443527
O       4.04071660      0.77040142      0.24406676
C       3.13936898      0.52827311     -0.52765653
C       1.77066044      0.32635171     -0.14666285
C       0.60837617      0.15016892      0.13361311
C      -0.75701789     -0.05494627      0.48689164
C      -1.86136091      0.39938522     -0.45944487
C      -1.59842041     -1.05726400     -0.29356702
H       3.32581179      0.44531125     -1.61458720
H      -0.97414880      0.02645986      1.54409028
H      -1.55115240      0.87454995     -1.37813814
H      -2.74151693      0.82497823      0.00072241
H      -2.29484581     -1.64970484      0.28228129
H      -1.10677084     -1.58386457     -1.09800887
