13
b3lypvtz=-190491.88803799
N       2.18238209     -0.10027263     -0.02441193
C       0.79141954     -0.10804831     -0.00347745
C       0.04579591      1.07269360     -0.02253410
C      -1.33545518      0.99814404      0.06235345
C      -1.94338652     -0.24726158      0.16671037
N      -1.24555210     -1.38424886      0.18570512
C       0.07699799     -1.31083356      0.10219943
H       2.60686010      0.70266838     -0.46043641
H       2.61407782     -0.96205450     -0.31830495
H       0.54536594      2.03135895     -0.09699335
H      -1.93543538      1.89850965      0.05014766
H      -3.02095346     -0.33726178      0.23604105
H       0.61798326     -2.25349341      0.12290112
