15
b3lypvtz=-214518.55609002
C      -3.08305154      0.37981357      0.14248272
N      -1.94596637     -0.46098142     -0.17609560
N      -0.73537870      0.07724297     -0.08335326
C       0.29987900     -0.68289290     -0.02989975
C       1.65711794     -0.11579515      0.01547040
C       1.81806990      1.38782449     -0.02603300
O       2.61503560     -0.86616028      0.08476518
H      -3.19056326      0.56017633      1.21750340
H      -2.96248074      1.33698806     -0.36054067
H      -3.98899493     -0.09909395     -0.22680505
H      -2.03104770     -1.45251609      0.02813174
H       0.23524992     -1.77373733     -0.01723963
H       2.87339189      1.62984482      0.06954027
H       1.24831371      1.86142691      0.77402465
H       1.43028229      1.78526097     -0.96536640
