16
b3lypvtz=-202053.674536
C      -0.40059211     -1.94603702     -0.12464830
C      -0.47307505     -0.65185734      0.20473369
C      -1.77965936      0.09882162      0.26834177
N      -1.71742308      1.32651920     -0.53740483
N       0.62497165      0.11421605      0.61536638
C       1.69355372      0.09095066     -0.07716832
N       2.85336702      0.67678079      0.33523662
H      -1.28392517     -2.49420036     -0.42010326
H       0.52990145     -2.49453643     -0.06442589
H      -2.57549613     -0.53498649     -0.12242800
H      -1.99968074      0.28913682      1.32974057
H      -2.58861634      1.83733567     -0.45197138
H      -0.99189250      1.92687530     -0.16062162
H       1.76341263     -0.42548780     -1.03873887
H       3.54297736      0.91727903     -0.35447955
H       2.80217666      1.26919030      1.14852446
