12
b3lypvtz=-200539.44332213
N      -2.64888947     -0.32782658     -0.00000048
C      -1.70006560      0.51461007      0.00010903
C      -0.25776273      0.23476975      0.00010515
N       0.21040338     -1.01533022     -0.00024472
N       1.53936073     -0.87880335      0.00002689
H       2.11480084     -1.70342425      0.00015100
C       1.94675043      0.41446659     -0.00000583
C       0.80126715      1.17346319     -0.00006545
H      -2.27196136     -1.27886447     -0.00012396
H      -1.95989020      1.57490405      0.00016926
H       2.98902007      0.68284510      0.00001542
H       0.72992476      2.24698911     -0.00015533
