16
b3lypvtz=-232748.24534344
C       1.44406928      0.86262435      0.42754381
C       2.09411039     -0.44477669     -0.05392858
O       0.82147425     -0.95646254     -0.51622716
C       0.17019829      0.31841370     -0.24750265
C      -1.08035917      0.15671645      0.59198962
C      -2.17406392     -0.61266170     -0.12132017
F      -2.63596822      0.12210635     -1.22040918
H       1.36402989      0.94996851      1.51028407
H       1.84996574      1.78606781      0.02115958
H       2.53739529     -1.08691842      0.70934688
H       2.80153458     -0.32813085     -0.87939036
H      -0.07355142      0.82055562     -1.18810657
H      -0.82791690     -0.37665851      1.51346591
H      -1.45919384      1.14392211      0.87355340
H      -1.80266182     -1.56714097     -0.49697734
H      -3.02906240     -0.78762524      0.53391494
