17
b3lypvtz=-217678.30856619
C      -0.61388825      1.59236116      0.46614889
C      -0.55924578      0.12627667      0.13239614
C       0.53051083     -0.55289121     -0.22361254
C       1.91788640     -0.02942855     -0.40537984
O       2.81026082     -0.87389337      0.32990685
C      -1.90792631     -0.55361957      0.23536818
O      -1.96115821     -1.90146519     -0.19314360
H      -1.18204180      1.75351322      1.38673736
H       0.37115574      2.03227467      0.60199425
H      -1.12642173      2.15587360     -0.31934071
H       0.43424021     -1.61774857     -0.40511085
H       2.17506259     -0.05522303     -1.47358103
H       2.00776456      1.00920173     -0.07462290
H       3.71207183     -0.64649943      0.08581710
H      -2.22072834     -0.56457008      1.28386643
H      -2.65156979      0.05612526     -0.29868170
H      -1.73587278     -1.93028731     -1.12866205
