12
b3lypvtz=-226241.46968911
C      -1.98853704      0.29508756     -0.74993924
C      -0.66217058      0.25266861     -0.68703832
C       0.08628288     -0.14205964      0.52232701
N      -0.24394202     -0.87710592      1.48417598
O       1.34531442      0.48689919      0.63396256
C       2.33260750      0.10744980     -0.20640535
O       2.25053021     -0.73063147     -1.05559491
H      -2.61410949      0.05201916      0.10017061
H      -2.49449645      0.58957952     -1.65867475
H      -0.06449149      0.53168328     -1.54448957
H      -1.17580630     -1.26155521      1.34455028
H       3.22861836      0.69606512      0.02285570
