19
b3lypvtz=-195150.49250621
C       2.22335749     -1.49633352     -0.07028582
C       1.91118454     -0.03132941     -0.13432273
C       0.74906111      0.56690480      0.13971884
O       0.58115594      1.93092070      0.03424444
C      -0.53272360     -0.07325639      0.57930769
C      -1.63774553     -0.02228355     -0.48921715
C      -2.95379861     -0.62373878      0.00031456
H       3.04521122     -1.69667862      0.62349564
H       2.53825200     -1.87760117     -1.04620618
H       1.37074156     -2.09232353      0.25094912
H       2.73630402      0.60833353     -0.44238983
H       1.40055608      2.32552876     -0.28371077
H      -0.88079576      0.45296856      1.47390996
H      -0.35216234     -1.10724136      0.87080514
H      -1.79163952      1.01545722     -0.78973819
H      -1.29505459     -0.55617705     -1.37966833
H      -2.83044495     -1.67083128      0.28700934
H      -3.33348256     -0.08600295      0.87200357
H      -3.72070549     -0.58151296     -0.77473229
