17
b3lypvtz=-217666.37064398
O      -2.88638064      0.02738251     -1.11315908
C      -1.65666925      0.57477913     -0.64942601
C      -0.97630601     -0.30613811      0.39519945
C       0.34854423      0.25690958      0.92930911
C       1.45959587      0.28739188     -0.09036346
C       2.39336291     -0.83040406     -0.25209417
O       2.79475427      0.36641840      0.42299662
H      -3.48977162     -0.04298667     -0.36687685
H      -1.80503704      1.58509381     -0.24587975
H      -1.03621222      0.67130265     -1.54088503
H      -0.82062637     -1.30045894     -0.03109704
H      -1.66357830     -0.43272258      1.23833839
H       0.68772157     -0.34249064      1.77657163
H       0.19219258      1.27122129      1.31077345
H       1.29937455      0.92551513     -0.95591812
H       2.28759041     -1.70511095      0.38284380
H       2.87144509     -1.00570243     -1.21053295
