11
b3lypvtz=-238709.88350652
O       2.83732752      0.75013864     -0.06310857
C       1.63787442      0.78172360      0.12525377
C       0.77983777     -0.33940549     -0.27024440
C      -0.55620842     -0.43566593     -0.12128222
O      -1.27959511     -1.51357761     -0.51555034
C      -1.48489030      0.57548269      0.48117543
O      -1.16244411      1.64451458      0.92934938
H       1.15120139      1.64572966      0.59586156
H       1.31640939     -1.16491589     -0.73062464
H      -0.70271230     -2.18023148     -0.90711496
H      -2.53680025      0.23600724      0.47618499
