16
b3lypvtz=-204417.09102145
C       1.07262711      1.04021345      0.74216807
C       1.27190919      0.47309757     -0.62936472
C       0.00457806      0.19216894      0.11882494
C      -1.41624168      0.53833900     -0.32010114
N      -1.74267157     -0.91336765     -0.25895783
C      -0.50310113     -1.18843658      0.52184298
O       2.24535543     -0.52913238     -0.74758926
H       0.90559290      2.10504605      0.84217387
H       1.65931743      0.59205609      1.53389371
H       1.21593918      1.15889014     -1.47130425
H      -1.54012317      0.98535758     -1.30988167
H      -1.94995467      1.15267524      0.41475519
H      -2.60256882     -1.12921519      0.22905877
H      -0.66001417     -1.28685364      1.60193051
H       0.06930437     -2.04997762      0.17134940
H       1.97005153     -1.14086099     -1.43879859
