17
b3lypvtz=-217688.54654014
C      -0.36495545      1.55581835      0.37566056
C      -0.22388344      0.30842525     -0.06033302
C      -1.35892045     -0.65738018     -0.30102989
C      -2.75964476     -0.14350723      0.01321024
C       1.14462914     -0.27884389     -0.34530585
O       2.12533474      0.72828828     -0.29131672
O       1.45296956     -1.33919059      0.54958045
H       0.49314420      2.19794585      0.50674541
H      -1.33647938      1.97131167      0.60353130
H      -1.16093556     -1.56736019      0.27300828
H      -1.31614371     -0.97469959     -1.35000399
H      -3.50108018     -0.91565653     -0.19479442
H      -3.01292407      0.73015513     -0.58940592
H      -2.85793876      0.13546053      1.06356228
H       1.14466276     -0.76256162     -1.32850694
H       2.97635790      0.30400501     -0.44222404
H       1.37472947     -0.98682826      1.44517127
