14
b3lypvtz=-227001.41174304
C      -2.83329628      0.66505087      0.00000272
C      -2.03509419     -0.60915979     -0.00003777
N      -0.76101318     -0.70210587     -0.00002244
C       0.08549608      0.39091171      0.00002491
C       1.41223098      0.09719712      0.00004567
O       1.86744043     -1.15058137      0.00001754
O       2.42012546      0.97976472      0.00009272
H      -3.90156114      0.45501006      0.00023478
H      -2.60823127      1.27580225      0.87966472
H      -2.60858978      1.27562633     -0.87987642
H      -2.58586128     -1.54628556     -0.00008121
H      -0.25495724      1.42062716      0.00002296
H       1.05669787     -1.69825862     -0.00002860
H       2.05649254      1.87230200      0.00017341
