15
b3lypvtz=-247835.27736128
F      -1.32087870      1.26041130     -0.11086167
C      -1.33996830     -0.03161069      0.34505278
F      -2.47875165     -0.61108299     -0.15340803
C      -0.12338526     -0.78977565     -0.13424408
C       1.16762293     -0.30507035      0.48340483
C       1.89784109      0.87958930     -0.08854622
C       2.47070353     -0.50316810     -0.24315133
H      -1.43922871      0.00754752      1.43260709
H      -0.09126257     -0.70192340     -1.22293766
H      -0.28661811     -1.84470579      0.10157892
H       1.21304957     -0.41119910      1.56166348
H       1.47225633      1.35572922     -0.96078357
H       2.38143410      1.56117980      0.59698205
H       2.43533172     -0.95978271     -1.22339246
H       3.34455304     -0.76579336      0.33648587
