11
b3lypvtz=-236299.9024923
C      -0.35975990      0.59784330      0.22324792
C       0.80349836     -0.10412053      0.09200669
O       0.55944097     -1.41820456      0.06334099
N      -0.84525680     -1.63763660      0.17509514
C      -1.33954354     -0.43165320      0.26665627
O      -2.67619269     -0.29547361      0.38954045
N       2.11041606      0.26887373     -0.06832260
H      -0.49776259      1.66320301      0.26831197
H      -2.89643945      0.63914789      0.43471083
H       2.35769239      1.17068950      0.30316299
H       2.78390717     -0.45266892      0.13716173
