14
b3lypvtz=-203663.63019912
C       2.72817229      0.51541380      0.80585611
C       1.92675726     -0.01684051      0.08971641
C       0.94851370     -0.66771754     -0.77662436
C      -0.48293438     -0.60703946     -0.26300733
N      -1.16548261     -1.67071593     -0.23097249
C      -0.99824174      0.76108316      0.15277489
O      -2.38220550      0.77216402      0.45071235
H       3.44282382      0.97963816      1.43848905
H       1.20127815     -1.71929439     -0.91488578
H       0.98265692     -0.19585942     -1.76572865
H      -2.10210762     -1.46531857      0.12643012
H      -0.47909445      1.07239996      1.06057458
H      -0.74149935      1.49654772     -0.61950789
H      -2.87863651      0.74553901     -0.37332947
