11
b3lypvtz=-267215.85210349
N      -0.79552066      1.37543026     -0.00007096
C      -1.16628033      0.18406527     -0.00000291
F      -2.48113980     -0.20619549      0.00006363
N      -0.40833158     -0.95394751      0.00001526
C       0.97594664     -1.13641346     -0.00002019
C       2.02231703     -0.31510260      0.00001110
F       2.00593713      1.02022779      0.00009953
H      -1.58125997      2.01585590     -0.00006667
H      -0.95235590     -1.79832455      0.00005025
H       1.23965835     -2.18443530     -0.00008388
H       3.02336810     -0.72232932     -0.00003615
