11
b3lypvtz=-236282.57071201
O      -1.77159013     -0.59862890      1.07337322
C      -0.95625871     -0.84717495     -0.06666443
C       0.25859780      0.01762450     -0.11595204
C       0.57151614      1.11635038     -0.84679931
O       1.77396328      1.55804932     -0.50111457
N       2.23628758      0.65345771      0.53929621
N       1.34281108     -0.19530548      0.71414746
H      -1.26307937     -0.81651423      1.86165881
H      -0.65276612     -1.89818829     -0.11017532
H      -1.58267670     -0.64609867     -0.93471918
H       0.04319514      1.65642862     -1.61305086
