14
b3lypvtz=-180374.1743144
C       3.36182039     -0.35693502     -0.24311244
C       2.21508434     -0.29305303      0.10264084
C       0.81787485     -0.19453777      0.50591716
C       0.04050404      0.84890754     -0.31328048
C      -1.42620752      0.99040816      0.12932629
C      -2.20444234     -0.23223521     -0.05428208
N      -2.80056973     -1.20478591     -0.20483786
H       4.37738539     -0.42244313     -0.54404922
H       0.34129374     -1.17326908      0.40331469
H       0.76860537      0.06289519      1.56860056
H       0.08007597      0.58471177     -1.37028645
H       0.52021376      1.82271368     -0.20892293
H      -1.90950554      1.78826892     -0.43771401
H      -1.48115771      1.27407687      1.18340893
