17
b3lypvtz=-194364.07166091
C       2.64034452     -0.68832237     -0.16058334
C       1.17086312     -0.72973065      0.12660648
C       0.31098258      0.28959310      0.18051595
C       0.64291030      1.74014670     -0.03931498
C      -1.12309555      0.04840703      0.52076359
C      -1.92082481     -1.04067539     -0.04371582
O      -2.08931468      0.29806219     -0.52008556
H       2.87852320     -1.29916226     -1.03603263
H       3.20771861     -1.11001677      0.67403128
H       3.01377461      0.31692754     -0.34387722
H       0.77450449     -1.72253677      0.31837280
H       0.41235432      2.32746570      0.85486817
H       1.68828061      1.90553813     -0.28803613
H       0.02897900      2.14506720     -0.84703787
H      -1.44083125      0.45220904      1.48181712
H      -1.46375752     -1.72500703     -0.75017791
H      -2.75980058     -1.44093240      0.51749507
