13
b3lypvtz=-190453.00784592
C      -2.57204376     -0.20660895      0.27953543
N      -1.67021258      0.41425755     -0.35437405
C      -0.32738699      0.11225095     -0.13922441
C       0.32342617     -1.06855535     -0.15758325
C       1.77661493     -0.76855422      0.03227457
N       1.89101103      0.68360428      0.16388424
C       0.70337330      1.14887926      0.04550221
H      -2.35522774     -0.95545667      1.04809615
H      -3.61504142      0.00943768      0.06354634
H      -0.09994061     -2.04580438     -0.33044228
H       2.19688503     -1.24784625      0.92327585
H       2.39640962     -1.09703342     -0.80897287
H       0.49102100      2.21137250      0.09080207
