10
b3lypvtz=-223055.57973653
N       2.43164958      0.36788811      0.00030822
N       1.63261822     -0.58745462     -0.00011424
C       0.28161835     -0.20070457      0.00010732
C      -0.30238830      1.02939507     -0.00027430
O      -1.64648453      0.84546557     -0.00007229
C      -1.80700293     -0.50893978      0.00046229
N      -0.70743445     -1.17169415      0.00045531
H       3.37420009     -0.04183078      0.00009453
H       0.06773997      2.03632520     -0.00081169
H      -2.81872200     -0.87569405      0.00075585
