14
b3lypvtz=-229601.34388479
C       1.59812214      1.44030014     -0.19293796
C       1.16835374      0.20419301      0.01105945
F       2.06286176     -0.77416751      0.27174570
C      -0.22911693     -0.31110588     -0.04542136
N      -0.52638880     -1.53981399     -0.23249171
N      -1.20428110      0.64971068      0.06284035
C      -2.60225696      0.25432500      0.08018970
H       2.65064884      1.67545893     -0.13610741
H       0.90454682      2.22391275     -0.45233908
H       0.31442647     -2.09635894     -0.35081339
H      -0.96172463      1.45809850      0.60944944
H      -3.21691234      1.15130601      0.13192020
H      -2.84005729     -0.40049753      0.92343011
H      -2.83970071     -0.28869317     -0.83258505
