11
b3lypvtz=-267212.55023021
C       1.97308236     -0.57149889      0.21630180
N       0.96136857     -0.47662050     -0.53572157
C      -0.08361307      0.37927668     -0.16245211
N       0.10190826      1.58416122      0.17286935
C      -1.44156867     -0.29440664     -0.31779664
F      -2.44129622      0.59129112     -0.05269551
F      -1.54403191     -1.31514637      0.58409419
H       2.04831786     -0.05055393      1.17307267
H       2.80748338     -1.19276318     -0.09755213
H      -0.79006785      2.05004915      0.33745568
H      -1.59158270     -0.70378865     -1.31757572
