14
b3lypvtz=-229598.02588452
C      -1.78263535      1.37156109      0.21048685
C      -1.55469697      0.07292224      0.02791516
F      -2.58688151     -0.80055499     -0.02842670
N      -0.37254776     -0.58926809     -0.17283897
C       0.85499250      0.07856456     -0.31696075
C       1.99048813     -0.32702347      0.25706343
N       3.27311789      0.14175725     -0.05239126
H      -2.79578491      1.73615842      0.23538589
H      -0.96231943      2.05831718      0.33489437
H      -0.36719623     -1.56138158      0.08963227
H       0.82839086      0.92633689     -0.99306000
H       1.97653005     -1.15327634      0.96010893
H       3.87781309      0.23276628      0.75103559
H       3.28192965      0.99141256     -0.59950681
