19
b3lypvtz=-195142.23128751
C      -3.60583174      0.37228591      0.16157013
C      -2.17395641      0.45850679     -0.36384064
C      -1.25560425     -0.62582628      0.22096407
C       0.13867194     -0.57251821     -0.32578810
C       1.24564718     -0.39295572      0.38678214
C       2.62983453     -0.33990359     -0.18494342
O       3.27028512      0.92660655      0.00449213
H      -4.23434877      1.15315291     -0.26927019
H      -4.05914008     -0.59116440     -0.08251316
H      -3.63564903      0.48472149      1.24767274
H      -2.17776983      0.37492379     -1.45471017
H      -1.75278375      1.44108807     -0.13575467
H      -1.22891256     -0.53710179      1.31064288
H      -1.69408505     -1.60636589     -0.00049269
H       0.23014832     -0.68294796     -1.40485347
H       1.16946602     -0.27704656      1.46690258
H       2.59682879     -0.49351270     -1.26360166
H       3.24746545     -1.14025662      0.24334111
H       3.37259511      1.07793221      0.94906039
