18
b3lypvtz=-181901.00335199
C      -1.43685285      1.38615040     -0.13108623
C      -1.27072536     -0.10360792     -0.04640095
N      -2.44542194     -0.76973164      0.33005425
C      -0.11076798     -0.74892124     -0.24198207
C       1.20660566     -0.12507436     -0.54873517
C       1.91757474      0.77556387      0.43809572
C       2.44394054     -0.60582722      0.16713678
H      -1.83837986      1.78017459      0.80583872
H      -0.49568941      1.88266144     -0.34597341
H      -2.14770643      1.64769775     -0.92161235
H      -2.42197280     -1.76949808      0.19381233
H      -3.29300551     -0.37028532     -0.04500066
H      -0.12337687     -1.83506734     -0.18685620
H       1.37204159      0.13375529     -1.59103532
H       2.47420940      1.62034987      0.05471515
H       1.43314974      0.95026679      1.38863887
H       2.30943890     -1.35194003      0.93905441
H       3.36073243     -0.70576887     -0.39755085
