14
b3lypvtz=-203659.70045242
C       3.15420048      1.12304275      0.37682036
C       2.15628957      0.55042896      0.04002703
C       0.93317340     -0.12467075     -0.38075004
N      -0.04631124     -0.18607468      0.71237769
C      -1.29761303     -0.80478237      0.33995835
C      -2.24564698      0.01826190     -0.51283880
O      -2.05651561      1.16584578     -0.82308948
H       4.03976855      1.62539234      0.67631823
H       0.54824810      0.37903441     -1.27814153
H       1.17584188     -1.15208904     -0.67102214
H      -0.21433428      0.75199706      1.05709521
H      -1.10977384     -1.75299045     -0.17687274
H      -1.86252532     -1.08263677      1.24041981
H      -3.17480168     -0.51075915     -0.81910193
