14
b3lypvtz=-224575.78469626
N      -2.48608959      0.30862807      0.00068320
N      -1.65461856     -0.62869012      0.09362463
C      -0.31900018     -0.25607227     -0.01977036
C       0.54867849     -1.29806735      0.01940234
O       1.87106464     -1.22179916     -0.08819780
C       0.08334449      1.18374153     -0.21641620
N       1.49657015      1.40619981      0.17782858
H      -3.41334031     -0.11849810      0.10411809
H       0.16229803     -2.30232753      0.14262205
H       2.09108816     -0.25050895     -0.09918296
H      -0.61838169      1.82434762      0.32123659
H      -0.01539111      1.45085320     -1.27221292
H       1.85944792      2.24397215     -0.25883907
H       1.56333556      1.54379412      1.18003983
