18
b3lypvtz=-181914.18319702
C       2.14798063      0.84082663      0.00806571
C       1.17515481     -0.08478467     -0.00288843
C       1.56262596     -1.54602030     -0.01105611
C      -0.24848598      0.27492865     -0.00784581
C      -0.61156243      1.73797089     -0.01297947
C      -1.19634451     -0.68678708      0.00444014
N      -2.57062961     -0.52053726      0.07689093
H       1.94660233      1.90189228      0.02017838
H       3.18968419      0.54984487      0.00798219
H       1.18291261     -2.06959693      0.86981927
H       1.17009982     -2.06362063     -0.88989405
H       2.64601744     -1.65088992     -0.01891165
H      -1.68626427      1.90738355     -0.06945854
H      -0.15860775      2.25664257     -0.86121426
H      -0.26003170      2.23868633      0.89299972
H      -0.90364749     -1.72716090      0.01783109
H      -3.11861245     -1.27959720     -0.29210402
H      -2.93915158      0.38054911     -0.17945807
