12
b3lypvtz=-226216.43770869
C       3.12810463      0.40114584      0.17118632
C       2.00929688     -0.01895028      0.08684185
C       0.66929365     -0.57235465     -0.01326776
O      -0.27363088      0.51626146     -0.11032222
C      -1.56848847      0.15252427     -0.21011118
N      -1.95851386     -1.04492172     -0.22044972
O      -2.35475579      1.24668588     -0.29454715
H       4.11866085      0.77529585      0.24587397
H       0.56853977     -1.21058545     -0.89237762
H       0.42461720     -1.17908826      0.85984748
H      -2.96801308     -1.09961009     -0.30235578
H      -1.79511091      2.03359715     -0.26262549
