13
b3lypvtz=-213748.55884939
C       3.49595825     -0.14203943     -0.00004045
C       2.28606585      0.41405475      0.00002159
N       1.09505593     -0.29527684      0.00004030
N      -0.06807049      0.33143288      0.00011579
C      -1.15911780     -0.35550122      0.00011291
C      -2.42663616      0.36610598      0.00009098
O      -3.51036379     -0.17773166     -0.00019063
H       4.37555871      0.48144866     -0.00002534
H       3.64188851     -1.21442701     -0.00010680
H       2.12989880      1.48363778      0.00006371
H       1.12005305     -1.31091325      0.00000042
H      -1.18233917     -1.44723448      0.00009179
H      -2.32012469      1.46753383     -0.00010626
