14
b3lypvtz=-226986.44723596
C      -2.87292355     -0.33766752     -0.00013333
O      -1.46621755     -0.49524560     -0.00053217
C      -0.77516021      0.73013994      0.00050352
C       0.72786623      0.51966660      0.00010257
O       1.47030752      1.47469864     -0.00010377
C       1.29238297     -0.89207915      0.00020060
N       2.53885704     -1.10792234      0.00000788
H      -3.21300445      0.20261667      0.89099363
H      -3.21334359      0.20421980     -0.89015361
H      -3.30848007     -1.33429681     -0.00095968
H      -1.02417741      1.33463187      0.88410190
H      -1.02447013      1.33634346     -0.88181688
H       0.59265943     -1.72109963      0.00046817
H       3.03263677     -0.20684093     -0.00024483
