18
b3lypvtz=-181893.30133208
C      -1.42975538      1.35121699     -0.26492188
C      -1.15801935     -0.12613542     -0.31368540
C      -2.07188930     -1.00743801     -0.71685611
C       0.20635944     -0.59438548      0.11765476
C       1.48663808     -0.06369475     -0.59160015
C       2.10530845      0.02967313      0.81902787
N       0.73628482     -0.01575938      1.38343680
H      -2.46430696      1.57115620     -0.52547480
H      -0.78357943      1.89789514     -0.95718960
H      -1.21971231      1.74232006      0.73156612
H      -1.86374256     -2.07051167     -0.73155558
H      -3.05541629     -0.69919737     -1.04890524
H       0.21720917     -1.69102480      0.11939919
H       1.33935875      0.91333711     -1.04655564
H       1.95677362     -0.73127146     -1.30941738
H       2.66878136      0.93012062      1.06878747
H       2.71851377     -0.84691303      1.05737957
H       0.61119411     -0.58938787      2.20890998
