17
b3lypvtz=-191979.64292033
C      -2.95980201     -0.06940373      0.02513176
C      -1.50347186      0.15156466     -0.24464668
C      -0.52283237     -0.63729129      0.21285623
C       0.91707113     -0.48987879      0.00874053
N       1.62352018     -1.73259278      0.02434103
C       1.57713490      0.68272005     -0.06391029
N       1.03531714      1.97316131      0.01252653
H      -3.52035358     -0.19323500     -0.90631362
H      -3.12236596     -0.95527810      0.64012817
H      -3.40647512      0.78570245      0.54170628
H      -1.25898086      0.99341383     -0.88471105
H      -0.79725691     -1.51578487      0.79325204
H       2.62416625     -1.60367929     -0.04380184
H       1.32911776     -2.34765514     -0.72537575
H       2.65075743      0.66923253     -0.21420931
H       1.65084487      2.63190223      0.46852819
H       0.11508202      2.00017491      0.43289878
