12
b3lypvtz=-249737.11448164
C       1.93200266      0.25934870      0.50704910
N       3.07556224     -0.24942057      0.27682011
N       0.79963044     -0.27127204     -0.04235653
N      -0.41855129      0.28755058      0.22632675
C      -1.45027599     -0.23213753     -0.27592591
N      -2.74660817      0.11650360      0.01710082
F      -1.39709208     -1.28474863     -1.12921207
H       1.71364011      1.12888327      1.12967221
H       3.80033439      0.26933450      0.76038590
H       0.87759186     -1.08563286     -0.63569476
H      -2.81235926      0.96898121      0.55160641
H      -3.37387492      0.09260975     -0.77386385
