16
b3lypvtz=-227730.3919587
O      -1.95829286     -0.60496710     -0.60303387
C      -1.30660988      0.66160779     -0.71299865
C      -0.38022119      0.98681878      0.45845832
N      -0.33131303      0.11801261      1.64695154
C       0.83569570      0.19256509      0.74778610
C       1.23230555     -0.98143855     -0.11408855
O       1.96565709     -0.57699140     -1.27198557
H      -2.72345822     -0.50716915     -0.02878238
H      -0.73438519      0.62509644     -1.64033507
H      -2.04669415      1.46009071     -0.81262271
H      -0.34964739      2.04413060      0.70131010
H      -0.84740702     -0.73272212      1.43074410
H       1.67844952      0.71537782      1.19478625
H       1.81148358     -1.69961964      0.47871101
H       0.34836057     -1.49706025     -0.48604932
H       2.80597695     -0.20383162     -0.98895129
