15
b3lypvtz=-214496.09498454
C      -0.46857803      1.42912419     -0.18803628
C      -0.50244696     -0.06207168     -0.05057285
C       0.52739958     -0.92273302     -0.05033199
C       2.00477704     -0.68594405     -0.14918532
O       2.48296053      0.60436494      0.20261758
N      -1.76252800     -0.72183857      0.08009211
N      -2.74591451      0.04310206      0.09618289
H      -1.08759750      1.73345602     -1.03381430
H      -0.90909071      1.90702460      0.68937385
H       0.54485606      1.78691968     -0.33179788
H       0.24732622     -1.96901565      0.02271375
H       2.32438343     -0.84562578     -1.18417329
H       2.51261881     -1.45715905      0.44388838
H       2.26946175      0.76481572      1.12752211
H      -3.57694571     -0.55503843      0.19119622
