19
b3lypvtz=-171820.87047425
C       1.86300020     -1.00762150      0.42286632
C       0.58916701     -0.86037951     -0.37914705
C       0.13792268      0.39421301     -1.08134477
C       0.44868197      1.64462088     -0.25680931
C      -0.36996959      1.04746684      0.92725958
C      -0.68058661     -0.19626448      0.07971218
C      -2.01273481     -0.88802090      0.07705084
H       1.79152085     -1.84965736      1.11533211
H       2.09319647     -0.12008429      1.01136906
H       2.71495966     -1.19301461     -0.23552366
H       0.36904267     -1.74080214     -0.97631944
H      -0.09347985      0.39211495     -2.13885602
H       1.50344453      1.85912691     -0.07355493
H      -0.01590838      2.54159404     -0.66304242
H      -1.26560789      1.63156075      1.13761481
H       0.15750269      0.87972594      1.86859709
H      -2.08777377     -1.60044588     -0.74689354
H      -2.83327626     -0.17263379     -0.02357880
H      -2.17226654     -1.44302585      1.00659797
