16
b3lypvtz=-204435.64439954
C      -2.34619145     -0.58850086      0.30033517
C      -1.32214381      0.03171975     -0.65466374
C       0.06444906      0.18068188     -0.05686888
C       0.84142537     -1.08188117      0.18618263
N       2.07620899     -1.24803384     -0.02685334
C       0.38719117      1.36688725      0.75787874
O       0.85969121      1.24956453     -0.58624939
H      -2.45196984      0.00747826      1.20855468
H      -3.32507521     -0.64449862     -0.17674954
H      -2.07087027     -1.60119375      0.59715406
H      -1.25019693     -0.56874050     -1.56570895
H      -1.65264247      1.02523296     -0.96275278
H       0.26629904     -1.92529328      0.57205907
H       2.47675701     -0.38187143     -0.40079328
H       1.15234908      1.29806344      1.52410245
H      -0.37464295      2.12476438      0.91609710
