14
b3lypvtz=-201287.82461215
C       2.52293010      0.17446922      0.20883826
N       1.15475733      0.00574621      0.65951272
C       0.22417870      0.15901166     -0.17253612
C      -1.22153442     -0.04619072      0.24535626
C      -1.99963801      1.16833078     -0.03390084
N      -2.60569525      2.12372587     -0.24021370
N      -1.77602413     -1.16608973     -0.52658824
H       3.07572485     -0.74564176      0.40613248
H       2.99334525      0.96036434      0.80203419
H       2.60936628      0.42627828     -0.85499239
H       0.37901847      0.40214644     -1.23039895
H      -1.22387356     -0.19212672      1.33170269
H      -2.77684778     -1.23932310     -0.38849490
H      -1.35570780     -2.03070077     -0.20645143
