12
b3lypvtz=-226262.06703498
O      -2.38595329      1.13165807     -0.15197235
C      -1.30896654      0.58987669     -0.07821839
C      -0.99332383     -0.89069143      0.17168245
C       0.51274510     -0.94933818      0.15387441
C       0.96173615      0.29103735     -0.06785696
O       2.19915609      0.81674173     -0.18060450
N      -0.07849333      1.21070833     -0.20749360
H      -1.44218290     -1.19000438      1.12245239
H      -1.47468640     -1.48919751     -0.60616220
H       1.11465959     -1.83095588      0.29460929
H       2.85067454      0.11575039     -0.07103042
H       0.04473481      2.19431481     -0.37928012
