15
b3lypvtz=-216931.57521646
C      -1.64871344     -1.20246615     -0.67257174
C      -1.08143002     -0.79069686      0.68852830
C       0.22084497      0.01260943      0.61293517
C       1.39350698     -0.74802056      0.00999991
O       2.44792593     -0.24214041     -0.27471114
C       0.07939192      1.39040781     -0.02721911
O      -0.97604387      1.94409173     -0.18751945
H      -2.55289733     -1.79792285     -0.54299124
H      -0.94193613     -1.80812217     -1.24399122
H      -1.90819199     -0.33012703     -1.27058230
H      -1.82100012     -0.19330073      1.22208307
H      -0.90046260     -1.68015828      1.29812607
H       0.56195114      0.24173310      1.63484839
H       1.22732496     -1.83405416     -0.13828090
H       1.03431561      1.86072611     -0.32127982
