14
b3lypvtz=-229588.50908839
C      -0.77379015      1.92524094      0.38315264
N      -0.11452715      0.97101474     -0.51896646
C       0.12377561     -0.31887191     -0.02073282
C      -1.02486838     -1.21635261      0.20473031
N      -2.21741920     -1.04072851     -0.19457211
C       1.34979237     -0.82346260      0.15774707
F       2.45310445     -0.08060255     -0.07322771
H      -0.97747944      2.84346290     -0.16615975
H      -0.16910376      2.16776768      1.26445986
H      -1.72330443      1.52000615      0.72669066
H       0.73495423      1.36787888     -0.89588857
H      -0.80262012     -2.12525816      0.76577385
H      -2.28213965     -0.17063588     -0.72800408
H       1.57330061     -1.84377909      0.43022911
