12
b3lypvtz=-226255.70584595
C      -2.06162309      0.27492969      0.10723043
C      -0.60334606      0.01246659      0.16892385
N       0.36358960      0.87046900      0.29081627
C       1.51157138      0.10863205      0.29464782
C       1.19798978     -1.20102218      0.17399185
O      -0.18204638     -1.26617809      0.09169632
O       2.73100533      0.67170628      0.40690907
H      -2.58370193     -0.23466139      0.91904446
H      -2.48242855     -0.08486530     -0.83349928
H      -2.23550885      1.34448723      0.18834125
H       1.74653280     -2.12077844      0.13231774
H       2.59796597      1.62481459      0.47376432
