15
b3lypvtz=-191230.99772493
C       1.59206318      1.35233170     -0.22556705
C       1.26978940     -0.09571836      0.01083775
N       2.36803039     -0.93291301     -0.19985523
C       0.09458339     -0.57683043      0.44234639
C      -1.12018757      0.22455027      0.82954262
C      -2.25197218      0.01819451     -0.08256682
N      -3.13358975     -0.15603624     -0.80135703
H       1.90263747      1.50319351     -1.26357672
H       0.74967490      2.01113871     -0.03859346
H       2.42394727      1.66315115      0.41022729
H       2.99083190     -0.64198065     -0.93800931
H       2.15316965     -1.91682588     -0.25957896
H      -0.01426967     -1.65140928      0.54318498
H      -0.91074213      1.29357071      0.86394982
H      -1.46073925     -0.05004071      1.83335972
