14
b3lypvtz=-224601.87030902
N      -2.03236605     -1.15033480     -0.00012734
C      -1.50958982     -0.00200521     -0.00003364
O      -2.21187053      1.15572592      0.00007654
N      -0.11207373      0.26001679     -0.00003105
C       0.67774910     -0.73394283      0.00012307
C       2.16990086     -0.57180519      0.00007550
N       2.71412120      0.77338213     -0.00009993
H      -3.04709937     -1.09208122     -0.00011359
H      -1.56567328      1.87484871      0.00010135
H       0.28428039     -1.75521354      0.00024184
H       2.55774121     -1.12135635     -0.86613316
H       2.55779397     -1.12115087      0.86638896
H       2.36835425      1.28123487      0.80633208
H       2.36825279      1.28106459     -0.80659564
