15
b3lypvtz=-216918.65770176
C      -2.12584442      0.06862477     -0.16991833
C      -0.85892400     -0.71083958     -0.52597234
C       0.34664867      0.19725868     -0.69995152
C       1.05510053      0.70854975      0.55970216
O       0.74893263      1.35886359      1.51222704
C       2.30989243     -0.01790630      0.07999083
O       1.57032784     -0.50605096     -1.06228292
H      -2.00202076      0.62312826      0.76055072
H      -2.38296991      0.78402705     -0.95369722
H      -2.97160898     -0.60843507     -0.04866386
H      -0.99597358     -1.25910147     -1.46133657
H      -0.63788777     -1.45446754      0.24347240
H       0.13052777      0.99790657     -1.41732178
H       2.67309138     -0.81908064      0.72891074
H       3.14070821      0.63752287     -0.19723217
