16
b3lypvtz=-181149.85338977
N      -2.83628074     -1.02938673     -0.18751029
C      -2.12400635     -0.16433734      0.07425952
C      -1.20644291      0.92801106      0.38661348
C       0.07312953      0.90489488     -0.47480281
C       0.92782816     -0.31935369     -0.25081108
C       2.40606438     -0.26774462     -0.51639672
C       1.89943395     -0.36541388      0.89931333
H      -1.74125289      1.86946197      0.24401806
H      -0.94662330      0.86262041      1.44564957
H       0.64770478      1.80266809     -0.23416718
H      -0.20646906      0.98161142     -1.52826717
H       0.43864277     -1.25549116     -0.49235293
H       2.87855529     -1.13607361     -0.95350885
H       2.82943375      0.67552909     -0.83579912
H       2.02815035     -1.29918410      1.42828856
H       1.98589330      0.51448620      1.52407962
