15
b3lypvtz=-240260.88534483
C       2.47159202     -0.74787945     -0.06836682
C       1.18413703      0.02123880     -0.30914671
O       1.30214379      1.26862595      0.36134558
C      -0.03872397     -0.75822308      0.18818482
C      -1.33777999     -0.02826114     -0.03691429
O      -1.45034514      1.13681986     -0.34165354
O      -2.41031529     -0.82482008      0.15364123
H       3.32086113     -0.16807962     -0.42805429
H       2.46030272     -1.70698000     -0.58832778
H       2.61199119     -0.92953397      0.99859927
H       1.06585245      0.19058564     -1.38751826
H       0.49636189      1.76509090      0.16648180
H       0.05249119     -0.93626278      1.26422255
H      -0.10706247     -1.73950498     -0.28583120
H      -3.19863156     -0.27680004      0.01894465
