12
b3lypvtz=-202893.81485465
C      -2.55399739     -0.42600422      0.57295175
C      -1.56607248     -0.12847966     -0.03966686
C      -0.38751739      0.28396315     -0.78570761
O      -0.40844440      1.19963979     -1.57934270
N       0.72474947     -0.51225234     -0.55553381
C       1.41593319     -0.64003560      0.71424023
C       2.06461995      0.01610368     -0.46730441
H      -3.43447380     -0.68635081      1.10684485
H       1.69679793     -1.64609774      0.99835203
H       1.09005984     -0.00198735      1.52707845
H       2.16532423      1.09450277     -0.46310047
H       2.81882384     -0.51958368     -1.02925046
