20
b3lypvtz=-205979.25427037
C      -1.80312510      0.80144933      0.73577342
C      -1.21505907     -0.50742394      0.19997312
N      -1.62678369     -0.84884002     -1.16926119
C       0.32495988     -0.57476810      0.29533354
O       0.75123043     -0.45935226      1.65954852
C       1.06419447      0.50395629     -0.48907662
C       2.57531931      0.27723363     -0.53552204
H      -1.41922697      1.02649684      1.73141331
H      -2.89121458      0.73334496      0.79314851
H      -1.55864272      1.64031433      0.08064559
H      -1.58064304     -1.32391403      0.83309387
H      -1.50729351     -0.05028305     -1.78294800
H      -2.61412965     -1.07469331     -1.19066142
H       0.61688134     -1.55227498     -0.10604490
H       0.47828827     -1.24942427      2.13505582
H       0.85283422      1.47588179     -0.03720966
H       0.67032453      0.52842383     -1.50794504
H       2.99329781      0.25288417      0.47005701
H       3.07410218      1.07176000     -1.09267861
H       2.81448591     -0.67067120     -1.02289523
