19
b3lypvtz=-192750.63830264
C       3.33855307     -0.37234582      0.11624169
C       1.85223338     -0.29293253      0.46134826
C       1.09551135      0.72416569     -0.39646359
C      -0.39814406      0.82115504     -0.09395944
N      -1.09519521     -0.40463689     -0.44288232
C      -2.41852400     -0.62488675     -0.15920298
N      -3.22388604      0.06832333      0.54352345
H       3.85372921     -1.09815985      0.74693194
H       3.82991793      0.59352219      0.25327047
H       3.48811449     -0.67263059     -0.92342870
H       1.39652554     -1.27965208      0.35041805
H       1.73394794     -0.02416359      1.51541557
H       1.53290443      1.71584986     -0.25289963
H       1.23270772      0.48902295     -1.45847819
H      -0.82921205      1.67892545     -0.62566902
H      -0.54103735      1.00872008      0.97452522
H      -0.70042142     -0.95477930     -1.18756742
H      -2.78708651     -1.55249045     -0.59867805
H      -2.78972241      0.91827626      0.90050572
