17
b3lypvtz=-191961.86908471
N      -2.02922839     -0.16086536      0.86072744
C      -1.13398122     -0.08462784     -0.29801981
C      -0.28164589      1.20102654     -0.21433545
C       0.98294567      0.75301359      0.50863094
C       2.05079289      0.09281516     -0.27295908
N       1.08173586     -0.72996917      0.46018298
C      -0.05881561     -1.19507386     -0.36561281
H      -2.57229606     -1.01650786      0.82819495
H      -1.48669160     -0.20124762      1.71791737
H      -1.76169558     -0.09203052     -1.19108933
H      -0.05836399      1.58250773     -1.21212159
H      -0.81668053      1.97872181      0.32728995
H       1.22466342      1.20903095      1.46120629
H       3.06558995      0.05263285      0.10488353
H       1.97313874      0.12508732     -1.35605295
H      -0.43308323     -2.13582428      0.03999757
H       0.25361557     -1.37878942     -1.39894001
