15
b3lypvtz=-214527.25320818
C      -2.67015633     -0.36541526     -0.00583897
C      -1.36784062     -0.68920663     -0.03078921
C      -0.25244004      0.22384651      0.01046919
N      -0.45628714      1.64838258      0.04622290
C       1.05127791     -0.18192254     -0.00339004
N       2.10834535      0.67822938     -0.10270778
O       1.46871335     -1.47329996      0.02662849
H      -3.43516550     -1.12696407     -0.04605720
H      -3.00454587      0.66218650      0.04971772
H      -1.14071762     -1.75168851     -0.10485464
H      -0.93659004      1.97258392     -0.78719695
H      -1.03605523      1.91263426      0.83590785
H       1.84504156      1.63981158      0.05163373
H       2.96439101      0.37063559      0.32990051
H       0.71395222     -2.04793735      0.18686042
