17
b3lypvtz=-194385.57730792
C       0.54705409      1.36403018     -0.44038163
C       0.57458863      0.05254450     -0.20405804
C       1.87337603     -0.56433804      0.20408866
O       2.91962353      0.02438355      0.33395705
C      -0.58385433     -0.90772084     -0.33739434
C      -1.98400853     -0.30411738     -0.47735481
C      -2.52171095      0.33903685      0.80277969
H       1.45434932      1.94399946     -0.33343449
H      -0.35096027      1.88572171     -0.73947985
H       1.82375880     -1.65699942      0.39441169
H      -0.57176542     -1.58463560      0.52517759
H      -0.38404136     -1.55195284     -1.20192418
H      -2.66445286     -1.10219590     -0.78365991
H      -1.99371031      0.42135516     -1.29514437
H      -3.52253327      0.74365262      0.64500553
H      -1.88551449      1.15275708      1.15136684
H      -2.58601861     -0.39568009      1.60836959
