16
b3lypvtz=-227754.6144268
N       2.46254803     -0.38947875     -0.01366565
C       1.42714879      0.06888651      0.92644421
C       0.07029311     -0.13454308      0.29807892
O      -0.01337714     -1.29095530     -0.43350354
C      -0.97550022      0.67767055      0.43788207
C      -2.32874312      0.43402526     -0.17993416
O      -2.28514422      0.01678742     -1.54010384
H       2.66298304      0.31577432     -0.71265574
H       3.32693110     -0.60933710      0.46186614
H       1.53553763      1.10692718      1.25009516
H       1.50245888     -0.56437917      1.81513844
H       0.91123458     -1.54447164     -0.61592360
H      -0.84192369      1.56325597      1.04566080
H      -2.89006778     -0.29446128      0.42356867
H      -2.90432687      1.36010886     -0.16886794
H      -1.66005213     -0.71580972     -1.58827995
