16
b3lypvtz=-204414.92568706
C      -1.87401312      0.83707457     -0.38124376
C      -0.41667074      1.01211208     -0.87497617
C      -0.11074725     -0.42145051     -0.34661406
C      -1.38612392     -0.31767528      0.52994890
C       1.19677083     -0.69968913      0.32773255
N       2.28615182     -0.59343243     -0.31100045
O       3.39587261     -0.88398415      0.50520854
H      -2.34961201      1.69018370      0.09973945
H      -2.52930952      0.47551837     -1.17392013
H       0.12204187      1.76476194     -0.29938064
H      -0.24856253      1.19614908     -1.93431053
H      -0.26553316     -1.14402383     -1.15060319
H      -1.14629024      0.03995485      1.53292615
H      -2.01419447     -1.20349426      0.61670161
H       1.20364213     -0.98767952      1.38051280
H       4.13657769     -0.76432548     -0.09726829
