16
b3lypvtz=-202032.57055153
C       2.47870893     -0.51065735     -0.15341866
C       1.45291821      0.27973602      0.15179784
C       0.04046232     -0.12919652      0.06855562
N      -0.24798916     -1.38392986      0.14708571
N      -1.62854633     -1.66001313      0.03796369
N      -0.93671022      0.83653643     -0.11784757
C      -0.68756710      2.26476160     -0.03169769
H       3.49860022     -0.17004994     -0.03665000
H       2.31796646     -1.51802693     -0.51200794
H       1.64716592      1.29031954      0.48932552
H      -2.00052384     -1.30780059     -0.84504067
H      -1.72492609     -2.66581768      0.03731510
H      -1.83027211      0.53399603      0.24799525
H      -0.34655367      2.59852651      0.95570109
H       0.05246512      2.56983390     -0.77089145
H      -1.61439167      2.78888097     -0.26161886
