13
b3lypvtz=-216154.0355002
C      -1.97519207      1.06196599     -0.34670451
C      -1.21156292     -0.20095214     -0.01988185
O       0.20335859      0.10994089     -0.10234157
C       1.04139612     -0.90401857      0.16032052
O       0.70494750     -2.02459913      0.45109158
C       2.42313286     -0.48133684      0.05040445
C       3.58348068     -0.18995505     -0.02493378
H      -3.04677512      0.86433672     -0.29573991
H      -1.73914978      1.85644111      0.36113311
H      -1.73882407      1.41310346     -1.35112729
H      -1.42693703     -0.56527548      0.98481518
H      -1.42951135     -1.00734877     -0.72029610
H       4.61163658      0.06769782     -0.09158657
