17
b3lypvtz=-191979.56388551
C      -2.96271521     -0.72927930     -0.00000145
C      -1.44945943     -0.56747026      0.00011161
N      -1.08946711      0.83880937     -0.00022128
C       0.15853216      1.37777274     -0.00001773
C       1.39478047      0.81571054      0.00004227
C       1.79489761     -0.57734089     -0.00000776
N       2.99172561     -1.03191211      0.00001391
H      -3.23069665     -1.78514409      0.00021551
H      -3.40666758     -0.27053506      0.88572223
H      -3.40648569     -0.27092476     -0.88601362
H      -1.02279999     -1.05944142      0.87969609
H      -1.02265196     -1.05981931     -0.87917696
H      -1.85284911      1.49094106      0.00028417
H       0.12467900      2.46157930      0.00003407
H       2.21389482      1.52675373      0.00011984
H       1.01015831     -1.33144449     -0.00006776
H       3.66331775     -0.25973507      0.00006687
