13
b3lypvtz=-242075.62094992
C      -1.44194405      0.69919154      0.07056249
C      -0.74300342     -0.61974716      0.31350374
N      -1.33716246     -1.67707917      0.72287776
C       0.69611734     -0.73992965      0.07983751
C       1.55204338      0.18953269     -0.34232481
O       2.86247697     -0.01516438     -0.52813527
F       1.20590521      1.45689094     -0.63652846
H      -2.50360125      0.60579747      0.29471837
H      -1.02119674      1.48982885      0.69372484
H      -1.33024907      1.02009902     -0.96625256
H      -2.33182386     -1.49848226      0.85737471
H       1.12077208     -1.71343006      0.27619121
H       3.27166588      0.80249217     -0.83554955
