15
b3lypvtz=-193582.57798863
C      -1.33235707     -0.94234589     -0.30826558
C      -0.69959745      0.34559630     -0.84488175
C       0.71404565     -0.34115419     -0.83912496
C       0.03443061     -1.08071152      0.38996845
O      -0.00545468     -0.00547164      1.34735000
C      -0.03428303      1.07645576      0.39714963
C       1.34050589      0.94291937     -0.28613647
H      -2.21133255     -0.89706820      0.33438515
H      -1.47083727     -1.66932440     -1.10921832
H      -1.08470202      0.94318787     -1.66559177
H       1.10868919     -0.93289590     -1.65955143
H       0.40443218     -1.99571306      0.84148315
H      -0.40950464      1.98829815      0.85073050
H       1.48823077      1.67553178     -1.08028795
H       2.21193444      0.89299561      0.36639135
