16
b3lypvtz=-204436.50539901
C       1.27611309      1.53170425     -0.49298013
C       0.88923291      0.65065652      0.67129782
C       0.85018341     -0.84351343      0.55889091
O       1.05448862     -1.45923075     -0.68352165
C      -0.45244162     -0.09552146      0.72523406
C      -1.42884548     -0.00838010     -0.38155143
N      -2.68654404      0.12974071     -0.26967846
H       0.73410168      2.47836420     -0.46774387
H       1.07447961      1.05546864     -1.45048856
H       2.34321779      1.76155092     -0.45419743
H       1.20752636      1.02704487      1.63655046
H       1.18134031     -1.43082822      1.41001791
H       1.99888693     -1.46826175     -0.87018383
H      -0.90927136     -0.15962630      1.70591164
H      -1.02661366     -0.07714352     -1.39045217
H      -2.96116255      0.17351842      0.71502772
