16
b3lypvtz=-181158.98195834
C      -2.23060612     -1.20065388     -0.17826874
C      -1.47287427     -0.14612104      0.11183734
C      -2.00927610      1.25949090      0.07245761
C      -0.02830585     -0.31374390      0.51929421
C       0.96117839      0.22531281     -0.54090394
C       2.35256257      0.04940897     -0.13802798
N       3.44314537     -0.09910516      0.19748987
H      -3.26912407     -1.09122584     -0.46372442
H      -1.84095662     -2.20985237     -0.13379424
H      -1.47186410      1.88088731     -0.64900338
H      -1.89828264      1.74461555      1.04653360
H      -3.06387757      1.27463880     -0.19811656
H       0.18818345     -1.36714853      0.69473930
H       0.15585826      0.21268987      1.45982520
H       0.79362298      1.28794780     -0.72473161
H       0.80707232     -0.29143731     -1.49042127
