15
b3lypvtz=-214527.3935444
N      -1.96660574      0.00061506      0.61175150
C      -0.50590285     -0.02511142      0.60877701
C       0.14034864     -1.18347566     -0.15866531
N       1.57607555     -1.01835307     -0.37754465
C       2.06576477      0.13928675     -0.27858937
O       1.44484379      1.31864375     -0.02311176
C       0.00678283      1.28342339      0.02174380
H      -2.34011492     -0.75531212      1.17230041
H      -2.32986787     -0.12162718     -0.32753226
H      -0.17844322     -0.07044195      1.65119966
H      -0.01485855     -2.12611266      0.37210696
H      -0.35135137     -1.29687846     -1.13253938
H       3.13243243      0.30320210     -0.39684114
H      -0.30528481      2.13500867      0.62137805
H      -0.37411866      1.41733281     -0.99663351
