16
b3lypvtz=-181104.43924275
C      -1.44384652     -1.01119265      0.65776003
C      -0.18917441     -1.00845094     -0.17597191
C      -1.42311688     -0.20106795     -0.60038992
C      -0.66779977      1.11699447     -0.37989531
C       0.56343064      0.28539440      0.02892007
C       1.98035378      0.53762371     -0.28172137
N       1.48452496      0.62200477      1.11030269
H      -2.01839658     -1.92722426      0.61546338
H      -1.45813416     -0.51791073      1.62337484
H       0.21340345     -1.91374449     -0.60989898
H      -2.09068921     -0.40636414     -1.42388777
H      -1.07375395      1.78238191      0.38362089
H      -0.50097753      1.67905504     -1.29822569
H       2.59861795     -0.30817502     -0.56249106
H       2.28393886      1.48358302     -0.71485787
H       1.74161936     -0.21310715      1.62789798
