9
b3lypvtz=-318049.41750085
C       0.09687828      0.36622355     -0.05835903
N       1.07656234     -0.42275784      0.07073445
O       2.28788900      0.23923368     -0.03184256
C      -1.29996093     -0.17788957      0.02477987
F      -1.97533374      0.43074971      1.02395603
F      -1.96981817      0.08993904     -1.11735232
F      -1.34935816     -1.49354229      0.23410646
H       0.19870285      1.43431251     -0.22905314
H       2.93443853     -0.46626880      0.08303021
