15
b3lypvtz=-219511.78710743
C      -2.52354010     -1.07495978      0.00000947
C      -1.20118522     -0.86797743     -0.00005346
N      -0.55805877      0.35386307     -0.00003736
C      -1.36373275      1.56043838      0.00001081
C       0.82920645      0.46681693     -0.00002774
C       1.74398835     -0.50061425      0.00005459
F       3.05988016     -0.15849915      0.00001532
H      -2.89761956     -2.08685178     -0.00002959
H      -3.25135779     -0.27792140      0.00009807
H      -0.53426335     -1.71816929     -0.00013828
H      -2.00444442      1.60246827      0.88536647
H      -2.00452914      1.60247050     -0.88528247
H      -0.71496358      2.43180785     -0.00001617
H       1.19383939      1.48458595     -0.00010092
H       1.59686634     -1.56838188      0.00015125
