15
b3lypvtz=-191198.16868201
C       3.23804998      0.16981392      0.00014892
N       1.98717941      0.38886131      0.00016657
N       1.24590215     -0.80488078      0.00017555
C      -0.02892962     -0.62997870      0.00008646
C      -0.76601535      0.62026395      0.00006111
C      -2.10348254      0.72085031     -0.00000347
C      -3.12169705     -0.37409835     -0.00008227
H       3.90665188      1.02324418     -0.00019292
H       3.64928568     -0.83971297     -0.00021168
H      -0.59356295     -1.55711340      0.00007871
H      -0.16905917      1.52026036      0.00010768
H      -2.51913040      1.72425214      0.00000216
H      -2.69112069     -1.37259122     -0.00008670
H      -3.77188080     -0.28545655      0.87486259
H      -3.77179053     -0.28541119     -0.87508971
