12
b3lypvtz=-249762.72201375
N      -2.16536070     -1.00480987     -0.30554259
C      -1.26960413     -0.16468653      0.02482182
N      -1.41500520      1.19014360      0.28543521
N       0.04344476     -0.64117355      0.13839401
C       1.22272555      0.04506139     -0.06862672
N       1.49637841      1.21858813     -0.40360056
F       2.23746443     -0.80586372      0.18582444
H      -3.09822368     -0.60526877     -0.26958994
H      -0.81618287      1.57617244      1.00071043
H      -2.37056696      1.49983071      0.35719942
H       0.10107225     -1.64719615      0.09010045
H       0.66741213      1.75216433     -0.63932497
