15
b3lypvtz=-263535.06223355
O      -2.36807905      0.32165053      0.24727084
C      -1.08980766     -0.05118591      0.74761673
C      -0.01450048      0.34716571     -0.27101274
O      -0.29868217     -0.33481459     -1.49501412
O      -0.06207069      1.72192650     -0.50304771
C       1.40586760      0.02762418      0.18207613
O       1.55337104     -1.39369720      0.14729763
H      -2.46504679     -0.12258878     -0.60501725
H      -0.94713272      0.49596134      1.67958946
H      -1.03044616     -1.12373812      0.95366399
H       0.16488813     -1.18238511     -1.45256054
H      -0.99689296      1.96884431     -0.52133320
H       2.09253602      0.52012674     -0.51059302
H       1.57065322      0.42190418      1.18877059
H       2.48524265     -1.61659379      0.21229323
