10
b3lypvtz=-223036.57703656
N       2.64453638      0.30657676     -0.00003233
C       1.67568803     -0.51119665     -0.00001669
C       0.24264125     -0.18925492     -0.00005754
N      -0.65907480     -1.13655488      0.00007354
O      -1.86578945     -0.51301198     -0.00006445
N      -1.71926488      0.85358531     -0.00005769
C      -0.43967514      1.06407579      0.00001548
H       2.32938049      1.27845231     -0.00004735
H       1.89668302     -1.57741158      0.00004314
H      -0.04938990      2.06775484      0.00021388
