14
b3lypvtz=-180356.01662496
C       2.81980903     -1.05044747      0.00009481
C       1.83439931     -0.36367714      0.00018344
C       0.63716265      0.42239040      0.00010934
C       0.70356213      1.76555326      0.00004929
N      -0.52396124     -0.34917496      0.00009358
C      -1.82257416      0.11818176      0.00001507
C      -2.91630117     -0.64695721     -0.00004525
H       3.70114871     -1.64212660     -0.00002825
H      -0.17165892      2.39570219     -0.00003677
H       1.66784585      2.24556776      0.00009039
H      -0.38849269     -1.34583908      0.00011831
H      -1.91105662      1.19489694      0.00000659
H      -2.86570393     -1.72837005     -0.00004556
H      -3.89413194     -0.19235879     -0.00009899
