15
b3lypvtz=-191217.75222358
C       2.20837239      0.10818140      0.03741631
C       1.16932572     -0.70643165     -0.04642714
C      -0.29955356     -0.32159765     -0.03567226
C      -0.96496750     -0.86857547      1.25194705
N      -0.91326980     -0.83494174     -1.27520212
C      -0.45599063      1.14566438     -0.04691228
N      -0.59887979      2.28628002     -0.02093097
H       3.21754294     -0.28099563      0.03482464
H       2.09383916      1.18240463      0.10658774
H       1.32491891     -1.77935456     -0.11641296
H      -0.84428145     -1.95245888      1.28349845
H      -2.03057198     -0.63657218      1.25515856
H      -0.51210379     -0.44155824      2.14654255
H      -1.91582454     -0.68235428     -1.26129425
H      -0.76038509     -1.83530316     -1.33743234
