15
b3lypvtz=-212103.5935793
N      -3.04909017     -0.44575327     -0.15370537
C      -2.24395853      0.69258553      0.04463959
C      -0.91576086      0.64515446      0.18064194
N      -0.20838943     -0.56483182      0.14393421
C       1.16936817     -0.64069936      0.10738303
N       1.90976978      0.36779836     -0.11485517
N       3.29278908      0.11969984     -0.21278195
H      -3.98929627     -0.22418229     -0.44214392
H      -2.64335942     -1.10852543     -0.80298360
H      -2.75896846      1.63608567      0.15052191
H      -0.32068342      1.53239748      0.32225725
H      -0.67988035     -1.37044638      0.52254750
H       1.55940325     -1.64992419      0.26134756
H       3.76136098      1.00064088     -0.05307378
H       3.61244064     -0.53442048      0.49923081
