13
b3lypvtz=-239639.97831227
C      -2.27277958      0.56872893      0.35240398
C      -0.85684235      0.39287766     -0.10093308
C       0.02705369     -0.39851882      0.48815589
N       1.35811006     -0.63914578      0.15877803
N       1.94719477     -0.04806662     -0.87920176
N       3.14232745     -0.38464511     -1.02033232
F      -0.27286863     -1.13787935      1.57747707
H      -2.49379485     -0.03554563      1.23017046
H      -2.97553362      0.28721030     -0.43619895
H      -2.47848828      1.61304988      0.60167098
H      -0.50647295      0.93780034     -0.96582243
H       1.90353352     -1.28383233      0.72241476
H       3.47856075      0.12796653     -1.83703086
