14
b3lypvtz=-203646.05252297
C       2.27052120      0.82651086      0.50460788
C       1.60811088     -0.35962078     -0.11334915
N       2.25847957     -0.45112749      1.21569124
C       0.17723693     -0.40175845     -0.22023758
C      -1.02340353     -0.45887287     -0.29556541
C      -2.47828552     -0.49766940     -0.41993618
O      -3.07366465      0.78236501     -0.61742774
H       1.62847838      1.62663168      0.85017573
H       3.23870223      1.13601972      0.13179128
H       2.14697298     -0.89319716     -0.88723942
H       1.54229114     -0.44138064      1.93500044
H      -2.92042902     -0.88966891      0.49759562
H      -2.75066770     -1.18816814     -1.22753845
H      -2.62434288      1.20993658     -1.35356827
