13
b3lypvtz=-239650.17090473
C      -3.48875912     -0.28834979      0.00011695
N      -2.23910502      0.45930945      0.00047572
C      -1.16000514     -0.19690637     -0.00021581
N       0.05770076      0.44475672      0.00033476
N       1.20174840     -0.27186389     -0.00057038
C       2.30648891      0.32341397     -0.00016884
F       3.43119007     -0.40228871     -0.00106769
H      -3.58981879     -0.92250342      0.88710791
H      -3.58748452     -0.92623283     -0.88447270
H      -4.32397565      0.41009518     -0.00235593
H      -1.05541652     -1.28558203     -0.00128609
H       0.05992419      1.45794431      0.00128908
H       2.49868143      1.39304141      0.00084402
