16
b3lypvtz=-204432.61930186
C       2.86551502      0.41708094      0.15401570
C       1.53371915     -0.15677562     -0.20898567
N       0.65439737     -0.43246200      0.65390706
C      -0.60868924     -0.98852081      0.20435119
C      -1.75761939     -0.16464853      0.73812013
C      -2.44041338      0.83285650     -0.08560332
O      -3.04012331     -0.44348986      0.17304054
H       3.01822551      1.37602336     -0.34879848
H       3.66964620     -0.24404570     -0.18063964
H       2.93946349      0.55768609      1.23032310
H       1.35584644     -0.33313183     -1.28093614
H      -0.69760182     -1.99986975      0.61369268
H      -0.68738118     -1.06177153     -0.88938759
H      -1.75698519     -0.02726375      1.81573042
H      -2.11530302      0.98988108     -1.10974532
H      -2.93269663      1.67845142      0.38347987
