12
b3lypvtz=-223838.88530477
N       3.11128646     -0.65902148      0.08770824
C       2.13363772      0.12463779      0.26715058
N       0.80832647     -0.15700054     -0.08618893
C      -0.06003111      0.74530979      0.16699971
N      -1.41946034      0.65163040     -0.10837629
C      -1.86286579     -0.40867273     -0.66025383
O      -3.15096270     -0.55196506     -0.94491524
H       2.78075443     -1.52094236     -0.35177172
H       2.32438198      1.09814497      0.73215517
H       0.21169556      1.69416520      0.63698807
H      -1.27030046     -1.27347539     -0.94723030
H      -3.60646222      0.25698941     -0.65916547
