11
b3lypvtz=-233929.55359594
C       0.83218307     -0.09426784      0.25711431
N      -0.10357550      0.90402796      0.16485838
C      -1.18860700      0.23533516     -0.14763632
N      -0.94692678     -1.07457425     -0.24345331
N       0.39090071     -1.31323155      0.01507037
O      -2.41022213      0.73971710     -0.35917908
N       2.12899657      0.17522717      0.63538148
H      -1.57623979     -1.82479739     -0.46320581
H      -2.35163892      1.69375040     -0.22362746
H       2.78806609     -0.54493351      0.38642066
H       2.43706366      1.10374674      0.39619236
