13
b3lypvtz=-190427.77380117
C      -1.37640648     -0.13932349     -0.67524699
C       0.05204462      0.39965605     -0.68942814
C       0.95901630     -0.55265763      0.08538881
C       0.00088856      0.36169557      0.81628094
N      -1.31198394     -0.30209931      0.82169703
C       2.35181597     -0.21643788      0.11934654
N       3.47000371      0.05982405      0.14926136
H      -2.09206917      0.62310336     -0.98318106
H      -1.57541184     -1.06533237     -1.21695352
H       0.46837827      1.12349778     -1.37255258
H       0.73992285     -1.61430692      0.09113599
H       0.32851099      1.06150462      1.57095057
H      -2.01470983      0.26087619      1.28330107
