11
b3lypvtz=-189662.27107204
C      -1.71365714     -0.48447529      0.28197154
C      -0.57182622      0.37648833      0.72148807
N      -1.64135008      0.90406227     -0.15738402
C       0.73414942      0.13853805      0.19227980
C       1.84077598     -0.03718695     -0.25751260
C       3.09033073     -0.24539923     -0.76614475
N       4.14847729     -0.42258639     -1.19918146
H      -1.49776812     -1.27474317     -0.42543824
H      -2.49482209     -0.70055245      0.99917496
H      -0.59036531      0.78632968      1.72419813
H      -1.30394448      0.95952518     -1.11345140
