13
b3lypvtz=-242054.89934462
C       2.44836261     -0.35121289     -1.14706769
C       1.17482972     -0.47481084     -0.81030953
O       0.56256407      0.44174401      0.01916762
C      -0.78945672      0.29957567      0.21317962
N      -1.56628032      0.37251922     -0.93952256
C      -1.23665024      0.09505166      1.44873312
F      -2.57736353      0.09174137      1.68584173
H       2.90697825     -1.09592485     -1.77868784
H       3.04949354      0.47678383     -0.79915753
H       0.53680100     -1.28291158     -1.14345563
H      -2.55699681      0.34024757     -0.74501006
H      -1.33115082      1.16306049     -1.52628831
H      -0.62123075     -0.07596366      2.31487707
