12
b3lypvtz=-249538.67244812
N       2.55431187      0.38572861      0.24947596
C       1.91698962     -0.58122935     -0.23222907
O       0.56407905     -0.79649785     -0.32119212
C      -0.29965347      0.11569390      0.35929359
O      -0.37453161      1.36101856     -0.22878166
C      -1.65359206     -0.59526914      0.33659888
O      -2.61336087     -0.08673897     -0.17717259
H       1.96813707      1.14709215      0.58482569
H       2.42873557     -1.43125376     -0.67381090
H       0.05778918      0.22676282      1.38988255
H      -1.20135645      1.39371326     -0.73607710
H      -1.68217790     -1.59949822      0.79013777
