10
b3lypvtz=-279692.90891008
C      -0.44134591     -0.24428477      0.71676500
C      -0.51207018     -1.45806591      1.25101100
F      -1.23234472     -1.68570980      2.36256520
N       0.31573978     -0.04545491     -0.43664514
C       0.40945271      1.08504492     -0.97066850
O       1.10822036      1.36359082     -2.06923659
F      -0.17198961      2.20422075     -0.53442198
H      -0.97092973      0.58205842      1.17912283
H      -0.02150434     -2.33951512      0.86379361
H       1.51677164      0.53811561     -2.36228544
