14
b3lypvtz=-224599.77904584
N       1.60085875      1.38601930      0.03076370
C       1.53404648      0.11879252      0.00502470
N       2.55876120     -0.80755307      0.07040697
O       0.35267515     -0.54592658     -0.04798235
C      -0.82354803      0.19551109     -0.03464300
C      -1.98370026     -0.44883969      0.04161347
N      -3.24826047      0.14357071     -0.08295090
H       2.55971281      1.71214534      0.07866762
H       2.32020182     -1.73359680     -0.24698780
H       3.45881916     -0.48298265     -0.23903939
H      -0.69261441      1.26332956     -0.11685467
H      -1.99222986     -1.52807584      0.13301215
H      -3.93174644     -0.23101662      0.55925876
H      -3.23313889      1.15223973     -0.02352226
