15
b3lypvtz=-214498.2680624
C      -2.41498797     -0.03944729      0.07552740
C      -0.91751442     -0.06097502     -0.00451722
N      -0.36746637     -1.20889833     -0.12711332
O       1.03599953     -1.26490893     -0.18242275
C       1.70172888     -0.11482967      0.35681214
N       1.25104983      1.12913978     -0.19631225
C      -0.18747518      1.25966104      0.02906283
H      -2.80646930     -1.05378418      0.04761987
H      -2.74742613      0.44294151      0.99868167
H      -2.84061353      0.52955424     -0.75552439
H       2.75537537     -0.28111968      0.14372453
H       1.53916548     -0.09664001      1.43964380
H       1.45296530      1.15201681     -1.18851686
H      -0.37378563      1.75314030      0.99067573
H      -0.61422587      1.91775243     -0.73133818
