15
b3lypvtz=-170294.93787788
C       2.70581802     -0.01681226     -0.55869282
C       1.65959221     -0.00215467      0.02975631
C       0.37888724      0.02017015      0.73867269
C      -0.46742321      1.21831282      0.33586604
C      -1.54021904      0.86340539     -0.35916607
C      -1.63325600     -0.62630017     -0.56134960
C      -0.55638304     -1.18468532      0.39740859
H       3.63199232     -0.02950968     -1.07625702
H       0.59727032      0.03722651      1.81074374
H      -0.16699030      2.23087083      0.56614338
H      -2.25902089      1.55649740     -0.77631405
H      -2.62627119     -1.02112933     -0.33592493
H      -1.42844129     -0.88355909     -1.60568488
H      -0.00246987     -2.02114093     -0.02233064
H      -1.02734329     -1.52772166      1.31867125
