12
b3lypvtz=-223853.33825985
N      -2.15677520     -0.68288981     -0.49877928
C      -0.98449058     -0.08657332     -0.05184510
C      -0.65038186      0.91500197      0.78651580
N       0.74212919      0.95142596      0.94479949
C       1.16538552     -0.00414605      0.19351919
N       2.45496620     -0.43845891     -0.00079106
O       0.19112044     -0.70513040     -0.44984346
H      -2.97152939     -0.27972994     -0.06050466
H      -2.26275288     -0.66553304     -1.50607526
H      -1.29655124      1.61334126      1.28894020
H       3.14291631      0.25420907      0.24876988
H       2.62596349     -0.87161678     -0.89460574
