15
b3lypvtz=-240230.16121342
C      -2.33935513     -0.96646453     -0.12903653
C      -1.16089427     -0.03282321     -0.31177307
O      -1.53879815      1.32304656     -0.38999161
O      -0.27671599     -0.26480292      0.77318211
C       0.98038363      0.37823189      0.65801021
C       1.97901934     -0.43866216     -0.14305986
O       3.07610808     -0.04543040     -0.43697417
H      -3.06163727     -0.81434969     -0.92943815
H      -2.82266606     -0.76900236      0.83006262
H      -2.01056365     -2.00497984     -0.13547297
H      -0.64968553     -0.22217989     -1.26169638
H      -2.06226268      1.53478181      0.39239604
H       1.38068800      0.48952247      1.66871468
H       0.89073462      1.37894313      0.22763904
H       1.62588909     -1.45520284     -0.42056996
