11
b3lypvtz=-238905.60499154
N      -2.80779818      0.70506804      0.00002795
C      -2.22805081     -0.42140673      0.00001078
C      -0.75712291     -0.63573762     -0.00003207
N       0.03494037      0.36308567     -0.00005746
C       1.41348120      0.16881580     -0.00005971
N       2.29302592      1.05980289      0.00003591
F       1.81534060     -1.11954257      0.00015070
H      -2.10693923      1.45318871      0.00000564
H      -2.83805509     -1.32422044      0.00003419
H      -0.40041249     -1.66596330     -0.00005466
H       1.84793863      1.97389755     -0.00006427
