19
b3lypvtz=-195139.98884476
C      -1.79519637     -1.15677776     -0.09501081
C      -0.81960468     -0.08686031     -0.54752858
C      -0.99420196      1.37513971     -0.05666020
C       0.54712275      1.48296140      0.07568271
C       0.64009761     -0.06854459      0.03063980
C       1.73584756     -0.70642375     -0.79496148
O       0.74432461     -0.64850580      1.33215004
H      -2.79944382     -0.94752353     -0.47102052
H      -1.85214833     -1.21575494      0.99321184
H      -1.50209381     -2.14320859     -0.46001151
H      -0.75196935     -0.09144187     -1.63837858
H      -1.49969987      1.42605331      0.91031151
H      -1.48947872      2.07194327     -0.73166946
H       1.00658657      1.94679180     -0.79754987
H       0.95243408      1.95173498      0.97283221
H       2.71170446     -0.50664491     -0.34902885
H       1.73161069     -0.31726675     -1.81339220
H       1.59868182     -1.78864576     -0.83571549
H       0.13797574     -0.20119190      1.93067345
