15
b3lypvtz=-240220.44616822
O      -2.17435369      1.60763841     -0.13283920
C      -2.28112277      0.69105237      0.63620163
C      -1.15137913     -0.20643506      1.09714833
O       0.12112947      0.12911430      0.63160653
C       0.36857739     -0.17711669     -0.74434364
C       1.84940302      0.02568693     -0.98189124
O       2.64451478     -0.84688590     -0.19450632
H      -3.26416725      0.42262040      1.08413988
H      -1.43121285     -1.24196988      0.83833741
H      -1.12939044     -0.16020204      2.19168243
H       0.09769070     -1.22239973     -0.93886255
H      -0.21918443      0.47601603     -1.39404796
H       2.10436802      1.07457181     -0.79013995
H       2.07994852     -0.19224188     -2.02543005
H       2.38517866     -0.70934907      0.72304470
