18
b3lypvtz=-205201.04920582
C       3.51354619      0.36085972     -0.14757760
N       2.13104050      0.48794970      0.29078821
C       1.26809890     -0.57820875     -0.21678132
C      -0.11454995     -0.48473928      0.35269373
C      -1.23625793     -0.41747583     -0.35573370
C      -2.60850657     -0.33566385      0.23690143
O      -3.31637600      0.82735247     -0.19815715
H       3.96978447     -0.61589123      0.08140272
H       4.11851649      1.13925178      0.31763049
H       3.56806677      0.50308988     -1.22915598
H       2.09394798      0.49750091      1.30326256
H       1.68149794     -1.58011768      0.00422763
H       1.22468285     -0.49619615     -1.30600782
H      -0.18089037     -0.49118988      1.43976555
H      -1.19108328     -0.39926863     -1.44142474
H      -3.22145675     -1.17707360     -0.09365558
H      -2.55074915     -0.37871053      1.33116325
H      -2.76831810      1.59420194     -0.00145167
