13
b3lypvtz=-237032.94019677
N      -2.82988911     -0.87926452      0.06011323
C      -2.38628458      0.44656330      0.09927145
C      -1.13082314      0.85172268     -0.07950688
O      -0.13428223     -0.08267188     -0.30825897
N       1.12245105      0.42450283      0.08787350
C       2.03656615     -0.42696538     -0.12480597
O       3.32151161     -0.15483875      0.16620353
H      -2.08640183     -1.55336390      0.17357555
H      -3.59347823     -1.07245943      0.69040392
H      -3.15646200      1.19798500      0.20222104
H      -0.82756228      1.88541656     -0.11852976
H       1.88260924     -1.41480680     -0.54425584
H       3.36361135      0.74147930      0.52987720
