15
b3lypvtz=-216899.08710572
C       2.09155151     -1.24915363     -0.03613607
C       1.18969551     -0.45767058      0.00507699
C       0.04334999      0.47465273      0.04519309
C       0.41668553      1.82702959     -0.55690536
O      -0.35486043      0.71132369      1.39400975
C      -1.13605366     -0.16567204     -0.71431007
O      -1.58314547     -1.34773340     -0.06448690
H       2.90624442     -1.92947518     -0.06051236
H       0.75028103      1.71581026     -1.58816330
H      -0.44956490      2.48784112     -0.52573601
H       1.21973028      2.27888026      0.02264582
H      -0.82164894     -0.08333216      1.68600846
H      -0.85926681     -0.35640184     -1.75538215
H      -1.97476409      0.52960447     -0.69058522
H      -0.90058697     -2.02137530     -0.16719368
