16
b3lypvtz=-181114.21875828
C       2.51035644      0.19086559      0.74616929
C       1.29678764      0.03581663      0.24554578
C       0.34461338     -1.14707621      0.12782822
C      -0.74823746     -0.14432255     -0.27136653
C      -2.14187952     -0.05898735      0.20157027
N      -1.83183636     -0.43787833     -1.19543397
C       0.27817202      0.99968080     -0.35189791
H       3.06031521     -0.64331167      1.16411327
H       2.99936691      1.15721520      0.75832157
H       0.17253140     -1.72549418      1.03652447
H       0.59487679     -1.83344473     -0.68464553
H      -2.55589353      0.92459494      0.39387247
H      -2.56292216     -0.85553594      0.80346160
H      -1.99253539      0.34846949     -1.81743781
H       0.06151887      1.90119034      0.22360103
H       0.51466575      1.28811797     -1.38042622
