16
b3lypvtz=-202051.60358531
C       2.70629662      0.50515297     -0.26086824
N       1.43543510      0.15912403      0.34785543
C       0.81584972     -0.85984194     -0.07430382
C      -0.53200997     -1.25037654      0.47416276
N      -1.61215553     -0.81676193     -0.41812608
C      -1.91102797      0.42472757     -0.40214579
N      -1.35159379      1.42944846      0.34168387
H       3.48017589      0.52162193      0.50899165
H       3.01021824     -0.18601114     -1.05690461
H       2.64681445      1.51452868     -0.67341480
H       1.21044131     -1.47270380     -0.89568811
H      -0.63486788     -0.82979915      1.48126224
H      -0.58612247     -2.33743246      0.55432267
H      -2.74695168      0.74670663     -1.02165721
H      -1.62542942      2.37219751      0.12753751
H      -0.40821062      1.31038320      0.68962553
