15
b3lypvtz=-191179.30451731
C      -2.18406998     -0.27383126      0.09435065
C      -1.00071385     -0.75082254     -0.65836202
N      -1.56120901      0.66302428     -0.84902277
C      -0.32611250      1.18846544     -0.14835563
C       0.25316856     -0.21104607     -0.07348961
C       1.44497256     -0.73189698      0.20094462
N       2.53000137     -0.05121540      0.76462233
H      -2.10108132     -0.08591463      1.16001970
H      -3.15688389     -0.61637747     -0.23664489
H      -1.07903156     -1.50689702     -1.43003002
H      -0.55361814      1.71076581      0.78550651
H       0.21979766      1.86417772     -0.80979159
H       1.62051440     -1.78923146      0.03732590
H       3.43165888     -0.36453797      0.43899610
H       2.46260682      0.95533755      0.72393074
