19
b3lypvtz=-192742.85763069
C       2.08070152      1.27828549     -0.13922231
C       1.52136692      0.07390686      0.02305538
N       1.75955320     -1.00220354     -0.83765284
C       0.52137138     -0.22118483      1.11414964
C      -0.88282646     -0.61167396      0.62114487
C      -1.61607144      0.51209598     -0.10318531
N      -2.96591336      0.07522357     -0.48398510
H       2.80674320      1.47056085     -0.91923646
H       1.80396976      2.10532169      0.49623699
H       2.55700707     -0.89073078     -1.44518531
H       1.75448788     -1.90961975     -0.39601995
H       0.91110695     -1.04066630      1.72966196
H       0.45370804      0.64878281      1.76857767
H      -1.48756791     -0.92597082      1.47452543
H      -0.80909296     -1.47573498     -0.04564892
H      -1.72218735      1.36440967      0.57409147
H      -1.00991045      0.85651830     -0.95015626
H      -2.90622407     -0.65730398     -1.18332423
H      -3.47183294      0.83855372     -0.91804172
