15
b3lypvtz=-191201.74222297
N      -2.79553236      0.91734963     -0.00109667
C      -2.42997411     -0.29646730      0.00023333
C      -1.02943133     -0.79257115      0.00075563
N      -0.05007295      0.01323024     -0.00000110
C       1.26993023     -0.48514213      0.00063038
C       2.30738752      0.32828960      0.74664498
C       2.30752807      0.32674463     -0.74687024
H      -1.96509822      1.51808400     -0.00174056
H      -3.20156954     -1.06803877      0.00101249
H      -0.89161317     -1.88067982      0.00202142
H       1.39241981     -1.56641673      0.00176469
H       3.07662013     -0.22176572      1.27001595
H       1.94602695      1.21139771      1.25242480
H       3.07686128     -0.22438771     -1.26895892
H       1.94625869      1.20880452     -1.25454118
