16
b3lypvtz=-181154.12203552
C      -2.19935862     -0.01336201      0.50710673
C      -0.99340100      0.01075269     -0.44380024
C      -0.16736911      1.25489947     -0.26492067
C       1.11851982      1.22934431      0.05980628
C       1.84521115     -0.06429927      0.25913096
C       0.95807314     -1.25558352      0.00773215
N      -0.26723242     -1.25409429     -0.30370126
H      -2.78765584     -0.91503027      0.33973171
H      -1.86560189     -0.00624736      1.54583139
H      -2.83598709      0.85799793      0.34503688
H      -1.39727571      0.00514554     -1.46421494
H      -0.67577227      2.20209511     -0.41189976
H       1.67708211      2.14999481      0.18276024
H       2.25515987     -0.13694382      1.27482904
H       2.72287256     -0.13010903     -0.39651377
H       1.43665829     -2.23249129      0.10436924
