16
b3lypvtz=-204467.63931921
C       1.37403881      1.36009099      0.37575395
C       1.17340700     -0.08269761      0.00217014
C       2.43981540     -0.87998696     -0.14176670
C      -0.01587756     -0.67014492     -0.17996678
C      -1.34690020     -0.04428710     -0.09420917
N      -1.73778301      1.11751916     -0.43148595
O      -2.26000054     -0.92033267      0.40227486
H       0.47317487      1.82384847      0.77067686
H       2.16467436      1.44569292      1.12450176
H       1.70608686      1.94157814     -0.49035126
H       3.10130001     -0.42021012     -0.88208862
H       2.24541017     -1.90704967     -0.44618860
H       2.99433004     -0.89691830      0.80081554
H      -0.04503693     -1.73492533     -0.37983649
H      -0.98611592      1.66006079     -0.84031163
H      -3.11001935     -0.45703178      0.38503908
