13
b3lypvtz=-237066.52302289
N      -2.00739056     -0.45251628      1.10219188
C      -1.99933113     -0.07928540     -0.09674980
O      -1.02370985      0.52810688     -0.84076971
C       0.16846633      0.94022246     -0.19716915
C       1.22221011     -0.15402106     -0.10490065
N       1.17554195     -1.30836405     -0.59517275
O       2.33891847      0.22403128      0.57654249
H      -1.13149910     -0.30920121      1.59965635
H      -2.87063425     -0.21748398     -0.73016895
H       0.56252934      1.75872122     -0.80277213
H      -0.04780647      1.33676856      0.80142888
H       0.30004911     -1.45343400     -1.09032321
H       2.24414405      1.11749259      0.92409875
