14
b3lypvtz=-203675.32794835
C       1.61649404      0.22002500      1.59775606
N       0.93927031     -0.51359206      0.81686555
C      -0.06063031     -0.00455505     -0.05856352
C      -0.45004942      1.42088285     -0.18466905
O       0.00983257      2.35750518      0.42292719
C      -1.21144126     -0.99359618     -0.31028975
C      -0.19535163     -0.80877471     -1.36288545
H       2.35584431     -0.27549702      2.22415458
H       1.51174536      1.29732140      1.68471017
H      -1.25656152      1.58360537     -0.93437199
H      -2.19834593     -0.57692540     -0.45598146
H      -1.16442279     -1.88013359      0.30318255
H       0.56387571     -1.56561500     -1.48655323
H      -0.46035942     -0.26065080     -2.25628165
