11
b3lypvtz=-236311.44586166
N      -0.78973065      1.77956817      0.28803854
C      -0.68893491      0.53976117      0.10832333
O      -1.70678421     -0.31280367     -0.13590277
C       0.69465373     -0.12282872      0.14743929
O       0.60124634     -1.47691206      0.58860226
C       1.29130565     -0.13593449     -1.19523853
N       1.75323372     -0.13702879     -2.24744424
H      -1.75613905      2.09364019      0.20967260
H      -1.36304580     -1.22006115     -0.11022291
H       1.33019620      0.48184912      0.79544254
H       0.63409898     -1.48934977      1.55128989
