11
b3lypvtz=-238733.83838576
C       2.41052419     -0.48806487      0.00000081
C       1.02577425      0.02636040     -0.00000019
C       0.48236422      1.23778551     -0.00000258
O      -0.89958982      1.12202801     -0.00000186
C      -1.19454628     -0.21176194     -0.00000009
O      -2.28056287     -0.69051847      0.00000609
O      -0.01034275     -0.90180392      0.00000233
H       3.11568484      0.34145739     -0.00000881
H       2.59666875     -1.10432466     -0.88171439
H       2.59667396     -1.10430866      0.88172614
H       0.89603150      2.22807020     -0.00000644
