10
b3lypvtz=-225489.78346358
O       1.21997828      0.02364721     -0.58321290
C       2.21264623     -0.00368250      0.10791616
C       2.80847019      1.18387545      0.70258021
C       2.51169047      2.51336793      0.69285491
N       3.44031479      3.19606591      1.44561273
C       4.24587959      2.27588746      1.87270044
O       3.94110530      1.02884227      1.47309229
H       2.74163341     -0.94745841      0.33841326
H       1.69556561      3.00599437      0.19407251
H       5.11431613      2.39226031      2.49887039
