13
b3lypvtz=-190467.30735611
C      -1.78947750      1.52658238     -0.00101519
C      -0.88164950      0.53293597      0.00129742
C      -1.36126115     -0.82399415      0.00050410
N      -1.71314761     -1.92154485      0.00167197
C       0.55723291      0.72990146      0.00980937
C       1.45866140     -0.27083440      0.00268557
N       2.81971693     -0.12754337     -0.05237105
H      -2.84901246      1.32276317     -0.00349095
H      -1.47322214      2.56060643     -0.00075106
H       0.89391539      1.76077691      0.01588305
H       1.12095270     -1.30050421     -0.00423510
H       3.38573438     -0.90324944      0.24231955
H       3.21508165      0.77792911      0.13933232
