12
b3lypvtz=-223806.23791957
N       2.72193206     -0.51723438     -0.41485118
N       2.25407009      0.32691209      0.36738253
C       0.87042977      0.58437803      0.21789427
C      -0.04346358     -0.36274103     -0.01637678
C      -1.50269544     -0.15310665     -0.02954061
N      -2.37186247     -1.06209588      0.12798477
O      -1.95218013      1.12041532     -0.19510451
H       3.70803334     -0.64807045     -0.14996237
H       0.60895945      1.60604735      0.46554302
H       0.29512774     -1.38193517     -0.15135961
H      -1.92332385     -1.96096731      0.28006992
H      -1.25280600      1.67236408     -0.55898744
