15
b3lypvtz=-191199.52782988
C      -1.80471508     -0.74616296     -0.26060252
C      -0.48383357     -0.15692422      0.11847638
C      -0.26534886      1.13260475      0.83872674
C       0.35554217      0.93146452     -0.54320456
C       1.52413976      0.01155882     -0.39185971
N       2.73930381      0.10812069     -0.70871437
N       0.72004297     -1.01196493      0.19437439
H      -2.20928044     -1.35350449      0.55324427
H      -2.52970213      0.03888648     -0.47829747
H      -1.70340646     -1.38339316     -1.13987552
H       0.37601683      1.18160873      1.71097265
H      -1.10364284      1.81847378      0.85511104
H       0.13135717      1.57288832     -1.38073979
H       3.25996956     -0.73084773     -0.45333667
H       0.99355709     -1.41280859      1.08572516
