17
b3lypvtz=-191955.87045182
N       3.25419307      0.30328447     -0.05916277
C       1.95326076      0.05013442      0.36938510
C       0.97524294     -0.51244367     -0.34319270
C      -0.36312226     -0.86356985      0.22340410
N      -1.45063267     -0.20901021     -0.51398737
C      -1.83767464      1.11370895     -0.04787925
C      -2.71264564     -0.06415818      0.19831303
H       3.38233801      0.29575667     -1.06019671
H       3.69374297      1.10475397      0.36514923
H       1.78887565      0.29018707      1.41524073
H       1.13285962     -0.74664576     -1.39178396
H      -0.54513895     -1.94092132      0.14719833
H      -0.38938893     -0.61006887      1.29608383
H      -2.08885312      1.83519020     -0.81546006
H      -1.30615292      1.52375252      0.80584857
H      -2.76584354     -0.43567024      1.21767101
H      -3.61050836     -0.21671016     -0.38805410
