15
b3lypvtz=-191212.66821085
C      -1.93702905     -1.16664621      0.19399857
C      -0.77881083     -0.41102949     -0.43202175
N      -0.99832973      1.03404757     -0.69178288
C      -0.08429055      1.43775617      0.39743950
C       0.37874910     -0.04160679      0.55869601
C       1.72378685     -0.34286329      0.10921948
N       2.78944097     -0.58364687     -0.25421905
H      -1.65123409     -2.19510535      0.42457165
H      -2.27424972     -0.68883257      1.11699072
H      -2.78159091     -1.20486897     -0.49725580
H      -0.43258796     -0.93572088     -1.32420594
H      -1.95642452      1.34171214     -0.58598080
H      -0.56724029      1.82068383      1.29958524
H       0.69005388      2.13874545      0.08670535
H       0.24363386     -0.44788674      1.56031870
