15
b3lypvtz=-170277.61239778
C      -1.33218831     -1.18766170      0.65543458
C      -0.82584293     -0.19961071     -0.09091669
C      -1.66321362      0.85763979     -0.56848616
C      -2.33204021      1.76013084     -0.99752742
C       0.61147236     -0.09953438     -0.49249848
C       1.70755710     -0.83403700      0.22275368
C       1.59388109      0.65949612      0.37056813
H      -2.37697439     -1.20143760      0.93051859
H      -0.71344360     -2.00406881      0.99935038
H      -2.93268706      2.55244478     -1.36867677
H       0.74688317      0.03892697     -1.55864152
H       2.51515381     -1.23291841     -0.37502445
H       1.45130500     -1.43977728      1.07986032
H       2.32068228      1.29052643     -0.12135124
H       1.22945531      1.03988097      1.31463704
