15
b3lypvtz=-214498.95054798
C      -1.93323584     -0.01577727     -0.63369436
C      -1.74911264     -0.28119683      0.81718460
N      -0.79111951     -0.80402694     -0.13886714
C       0.50231369     -0.25720185     -0.23243712
C       1.18433664      0.39538151      0.71185233
N       2.48907965      0.90177025      0.53308588
O       1.08819158     -0.48781173     -1.46002226
H      -1.72473498      0.98899122     -0.98186920
H      -2.66833473     -0.57000164     -1.20244990
H      -2.35444236     -1.02494416      1.31921079
H      -1.45212455      0.55991083      1.43186149
H       0.71685661      0.62442765      1.65703422
H       2.91762923      0.53667045     -0.30722612
H       3.08875274      0.72067776      1.32695868
H       0.68594446     -1.28686924     -1.82110604
