17
b3lypvtz=-217668.61789346
C      -2.19569842     -0.77798963      0.13109455
C      -1.12502203      0.28308872      0.37192396
O      -1.02836552      1.18311935     -0.73588962
C       0.25101018     -0.32609089      0.58800276
C       1.00020359     -0.92251136     -0.62361191
O       2.15070828     -0.08183873     -0.37646428
C       1.46487799      0.61921199      0.68683327
H      -3.17195637     -0.31512110     -0.03041069
H      -1.95520158     -1.37457042     -0.75027389
H      -2.28448382     -1.44602572      0.99007533
H      -1.38540869      0.84991395      1.27704877
H      -1.88607714      1.59433341     -0.87567829
H       0.19349162     -1.01931296      1.42724983
H       0.54493375     -0.70492891     -1.59193887
H       1.25402556     -1.98324557     -0.56297339
H       2.02897192      0.58771312      1.62200374
H       1.25333567      1.65541674      0.41496472
