15
b3lypvtz=-214505.23103302
C      -1.93396794      1.34458729      0.21240741
C      -0.88875015      0.27391073      0.32732677
N      -1.28813325     -0.81664091      1.08185238
C       0.34135702      0.42868619     -0.21534844
C       1.40825515     -0.53428290     -0.15901336
N       2.54338947     -0.29254493     -0.69961905
O       3.42092650     -1.38266472     -0.52199765
H      -2.23588342      1.69536119      1.20267444
H      -1.56648551      2.19254043     -0.35949725
H      -2.83121392      0.96074879     -0.28313491
H      -2.27851083     -0.99457617      1.11277851
H      -0.74145727     -1.65864535      1.01353976
H       0.55727509      1.35176682     -0.73373599
H       1.27069632     -1.49049339      0.34785513
H       4.22230275     -1.07795306     -0.95808776
