15
b3lypvtz=-214515.46138273
C       0.24163849      1.56975738      0.23242372
C       0.02219423      0.21333371     -0.49826183
C       1.15541450     -0.31677113      0.40132638
N       1.85989459     -1.35560158      0.53379680
N       1.18994922      0.87247618      1.10799144
C      -1.33428227     -0.43900220     -0.33115307
O      -1.27138246     -1.72154811     -0.94833789
H      -0.62619620      1.97993326      0.75369354
H       0.68253426      2.34349016     -0.39978271
H       0.29451533      0.22934226     -1.55335296
H       1.56141853     -2.07148236     -0.12266558
H       1.97078758      1.24953297      1.62224831
H      -1.57506827     -0.52370276      0.73486963
H      -2.10438159      0.18411208     -0.80404544
H      -2.06703593     -2.21386986     -0.72875034
