17
b3lypvtz=-215291.72492042
C      -2.77994161     -0.41148339     -0.39019669
C      -1.45563997      0.17113965      0.05402560
N      -1.20920848      1.40844874      0.26333559
N      -0.47609561     -0.76936620      0.25247546
C       0.88146995     -0.42674894      0.63235247
C       1.75964900     -0.02134298     -0.55500750
O       3.08343623      0.30868154     -0.15255739
H      -3.51908095      0.37493744     -0.52254607
H      -3.15595111     -1.12345097      0.34753160
H      -2.67078731     -0.94359733     -1.33819580
H      -2.04041009      1.97001414      0.11372075
H      -0.66370500     -1.70943116     -0.04481271
H       0.84172357      0.40068828      1.33894559
H       1.32254444     -1.28897888      1.14117692
H       1.75920302     -0.81881960     -1.30951779
H       1.34759395      0.87612719     -1.01284853
H       3.51355197     -0.48557351      0.17845151
