11
b3lypvtz=-217991.58810904
C      -0.78805580     -0.52902870     -0.39577227
C      -1.60530588      0.64579529      0.13801663
F      -1.53212809      0.68259800      1.52194830
C       0.63949037     -0.39780447     -0.16094384
C       1.82279582     -0.27746099      0.02955344
C       3.16605004     -0.14409958      0.24289467
N       4.30316131     -0.03089230      0.42017566
H      -0.97094545     -0.61602971     -1.47156599
H      -1.15094061     -1.45184453      0.06453082
H      -1.23137297      1.59543891     -0.24647293
H      -2.65274874      0.52332807     -0.14236449
