17
b3lypvtz=-171086.4939093
C       2.55812514     -0.26168986     -0.53849197
C       1.64090827      0.37818682      0.51558362
C       0.17931210      0.21566726      0.23538317
C      -0.72310005      1.17777749     -0.03827099
C      -2.04490629      0.58214102     -0.24253497
C      -1.96057032     -0.74944898     -0.09187314
C      -0.53792540     -1.11381823      0.22564145
H       3.60779877     -0.10362991     -0.28487436
H       2.37887848      0.16973441     -1.52441565
H       2.39381038     -1.33798452     -0.61036929
H       1.87739336     -0.05730754      1.49301025
H       1.86909665      1.44368684      0.59252838
H      -0.51359184      2.23733452     -0.09518451
H      -2.93935492      1.14188616     -0.47657136
H      -2.76312273     -1.46556928     -0.18171547
H      -0.11986486     -1.80285871     -0.51697338
H      -0.45033275     -1.62469548      1.19199024
