18
b3lypvtz=-181829.52994761
C       0.57370849      0.76983613      0.13781200
C       0.57937799      1.36237428      1.54695577
C       1.71127285      2.46089380      1.61909706
C       0.54833912      3.47551067      1.17857178
C      -0.37593407      2.43738264      1.90696058
C      -1.44305176      1.30953078      2.10488873
N      -0.26325685      0.36194602      2.39522803
H       0.88684017      1.48318360     -0.62463258
H      -0.39588454      0.36357406     -0.14517689
H       1.28473543     -0.05943283      0.12886655
H       2.05112170      2.68748906      2.62849282
H       2.56789273      2.35117815      0.95318031
H       0.44639255      3.51872729      0.09715873
H       0.58963919      4.48488765      1.58487232
H      -0.15051225      2.67070332      2.95426752
H      -1.96343237      0.97235263      1.21266716
H      -2.15016657      1.42379453      2.92533902
H      -0.03078181      0.47856819      3.38005108
