15
b3lypvtz=-193601.51643791
C      -2.45777156     -0.52242478     -0.82238393
C      -1.56596848      0.01086489      0.00927036
O      -1.51157595      1.33242746      0.34392494
C      -0.49487417     -0.77418605      0.72598499
C       0.86453671     -0.41090296      0.32750954
C       1.98288623     -0.12328777     -0.00167992
C       3.33677764      0.23346989     -0.40234454
H      -3.21987725      0.07856267     -1.30263985
H      -2.43942376     -1.57734811     -1.04622456
H      -2.18519704      1.81372511     -0.14911547
H      -0.61251262     -0.60697961      1.80202100
H      -0.66382094     -1.83707338      0.54804225
H       3.32542132      1.00390178     -1.17605156
H       3.90998063      0.61956577      0.44300923
H       3.87171924     -0.63074790     -0.80146746
