13
b3lypvtz=-211350.61408184
C      -1.75087528     -0.25936141      0.57908497
N      -0.32094128     -0.42766193      0.33944748
C       0.41505608      0.52656406     -0.34954348
N       1.64312775      0.38502835     -0.70494975
N       2.19641118     -0.84417293     -0.38582448
C      -0.20991264      1.78142441     -0.66226823
N      -0.74582307      2.77710456     -0.88375917
H      -2.34721221     -0.26022140     -0.33812345
H      -1.93004524      0.67680752      1.10326026
H      -2.08936913     -1.07273871      1.21813771
H      -0.05296147     -1.36419392      0.06358690
H       1.99855862     -1.12983929      0.57270755
H       3.19398668     -0.78873930     -0.53073701
