14
b3lypvtz=-226969.65829529
O       2.60568421      0.51168818      0.57479315
N       1.81941338      0.04294452     -0.50591947
C       0.60967303     -0.08351102     -0.15397108
C      -0.48231399     -0.55362717     -1.07918897
C      -1.72667272     -0.05687854     -0.33462063
O      -1.38650343     -0.13803512      1.05107626
C      -0.01700503      0.23150138      1.18238201
H       3.48222800      0.57107565      0.18276552
H      -0.48208001     -1.64518477     -1.13224592
H      -0.37637865     -0.15972667     -2.08802691
H      -2.61282982     -0.66748680     -0.49490182
H      -1.95743333      0.97998954     -0.61152913
H       0.09455013      1.30014266      1.40810718
H       0.42986822     -0.33289182      2.00117980
