15
b3lypvtz=-191233.29464178
C       2.23676506      0.13477318      0.10826205
C       0.75338153      0.03853170      0.00171360
C      -0.05700494     -0.97893425      0.38366445
C      -1.43806541     -0.61893122      0.10859199
N      -2.54319874     -1.24505255      0.23382852
C      -1.38495882      0.80703698     -0.44105975
N       0.05099418      1.06752881     -0.59677940
H       2.68561146      0.24536859     -0.88137862
H       2.52931491      1.00932810      0.69627964
H       2.65227264     -0.75028240      0.58453765
H       0.27214793     -1.92262238      0.78792496
H      -2.38477487     -2.18082587      0.60648440
H      -1.91632782      0.88501633     -1.38913088
H      -1.84397822      1.50013369      0.26820142
H       0.38782113      2.00893130     -0.47114002
