16
b3lypvtz=-204467.18172047
N      -2.22548072     -0.70817464     -0.46426208
C      -1.37626297      0.12207529      0.20982862
O      -1.61395629      1.30532957      0.36143630
C      -0.10257019     -0.53120168      0.73309822
C       1.01929804     -0.46998771     -0.28721665
C       2.45006969     -0.36283255      0.16983532
C       1.77872005      0.81083756     -0.49423720
H      -2.00513724     -1.67108823     -0.63959694
H      -3.03089323     -0.30567678     -0.91264486
H      -0.28927483     -1.56910085      1.02350622
H       0.18394704      0.01886154      1.62897476
H       0.85155763     -1.06837339     -1.17532482
H       2.63363206     -0.30488221      1.23452390
H       3.20605633     -0.90456966     -0.38141336
H       2.07727027      1.07002194     -1.50024211
H       1.49922237      1.65567681      0.11900368
