17
b3lypvtz=-217668.47942722
O       3.18163885      0.49486263      0.17504203
C       1.79939249      0.83326281      0.13874333
C       0.93547226     -0.26458705     -0.47489869
C      -0.52514988      0.12337525     -0.57915943
C      -1.40241802      0.12440359      0.69155862
C      -2.30631794     -0.83336882     -0.10020578
O      -1.33709063     -0.92569420     -1.17100768
H       3.28932465     -0.29292705      0.71674219
H       1.74067765      1.74057287     -0.46485857
H       1.43687571      1.08889803      1.14263890
H       1.01568013     -1.18009566      0.12095618
H       1.31123135     -0.49808349     -1.47405653
H      -0.62633592      1.04689614     -1.16242450
H      -1.83708254      1.07710969      0.98537577
H      -0.91947521     -0.33313004      1.55418775
H      -2.51012616     -1.80756168      0.34759624
H      -3.24629679     -0.39393303     -0.44602983
