15
b3lypvtz=-191219.96044824
C       3.56155695     -0.25137678      0.00000046
C       2.37316870      0.35294207     -0.00000207
N       1.17295055     -0.34603023     -0.00000762
C       0.08738354      0.32495772     -0.00001161
N      -1.13269899     -0.28542738     -0.00001139
C      -2.35349102      0.36803015     -0.00000387
C      -3.54756136     -0.22320139      0.00000313
H       3.63397216     -1.33025218      0.00000034
H       4.47516176      0.32476568      0.00000030
H       2.32117870      1.44494551     -0.00000272
H       0.04296007      1.41896390     -0.00000179
H      -1.11570622     -1.29521295     -0.00000891
H      -2.26710249      1.44766109     -0.00000532
H      -3.65897882     -1.29957854      0.00000595
H      -4.44589554      0.37329833      0.00000512
