15
b3lypvtz=-240235.7452759
C      -2.42555853     -0.57056787     -0.12570576
O      -1.03295293     -0.58968162     -0.41650789
C      -0.27020707      0.25535508      0.41590869
O      -0.57704989      1.60157808      0.28014386
C       1.19593629     -0.00772497      0.00624713
C       1.73532827     -1.39357996      0.19873721
O       1.83459548      0.90276411     -0.46917435
H      -2.61370010     -0.89121737      0.90559741
H      -2.84539528      0.42571486     -0.27261028
H      -2.89861981     -1.27085534     -0.81036412
H      -0.43734425     -0.02194318      1.46698365
H       0.10698652      1.97937310     -0.29713175
H       2.77592104     -1.43880712     -0.11154953
H       1.13419387     -2.09637834     -0.37994918
H       1.64494140     -1.68833346      1.24699892
