20
b3lypvtz=-182681.43163869
C      -2.43768625     -0.67744257      0.23470528
C      -1.16739792     -0.11780479     -0.38322667
C      -0.77340418      1.30319230      0.10393348
C       0.77335108      1.30317792      0.10411129
C       1.16739618     -0.11774018     -0.38318976
C       2.43771709     -0.67737609      0.23467928
N       0.00002049     -0.97357185     -0.12736071
H      -2.35022999     -0.72728217      1.32391006
H      -3.29577581     -0.04548976      0.00092249
H      -2.64201655     -1.68199009     -0.13742387
H      -1.29595746     -0.08416034     -1.47091299
H      -1.16122660      1.47186098      1.11106189
H      -1.19545587      2.08104375     -0.53392995
H       1.19558961      2.08114975     -0.53348247
H       1.16093125      1.47162830      1.11137180
H       1.29592589     -0.08399825     -1.47087867
H       2.35028172     -0.72727097      1.32388442
H       3.29579068     -0.04539248      0.00091774
H       2.64205745     -1.68190289     -0.13749755
H       0.00001820     -1.24209957      0.85438191
