16
b3lypvtz=-204427.96200813
C       0.61024702      1.71150451     -0.41843212
C       0.25621444      0.29706537      0.04563946
C      -1.10372442     -0.11435791     -0.48290627
C      -2.03077045     -0.92315038      0.30694068
O      -2.22951740      0.48922658      0.15775088
N       1.24151739     -0.64533628     -0.47011104
C       1.97941288     -1.25230993      0.35125257
H       1.56337009      2.02696930      0.00657447
H      -0.16285865      2.41122345     -0.10110046
H       0.69445872      1.74581939     -1.50533986
H       0.21396703      0.27794524      1.14453810
H      -1.17084242     -0.16257108     -1.56679693
H      -1.74099860     -1.24528361      1.30237919
H      -2.76289510     -1.54910030     -0.19246372
H       1.91816254     -1.11242363      1.43804533
H       2.72425695     -1.95522074     -0.01597027
