14
b3lypvtz=-227007.66757952
C       0.58545387     -0.34055462      1.07738313
C      -0.09923355      1.01807607      1.23050691
O      -0.43575132      1.43543556     -0.12136969
C      -0.39317382      0.36351324     -0.95229851
N      -0.51829982      0.36994489     -2.20481310
C      -0.12005946     -0.89826921     -0.15813587
O       0.62781402     -1.83929701     -0.88364052
H       0.48286008     -0.96674766      1.96120631
H       1.64590415     -0.22189920      0.85121518
H      -1.02389875      0.95566821      1.80785875
H       0.53467127      1.78997996      1.66017828
H      -0.66397337      1.30254746     -2.58381120
H      -1.09129550     -1.32444707      0.13492403
H       0.46898222     -1.64395063     -1.81920371
