16
b3lypvtz=-181127.5241303
C      -2.71170727      0.75784303     -0.57454171
C      -1.98476429     -0.08611717     -0.12581796
C      -1.07850641     -1.09298890      0.43425798
C       0.34044716     -1.03501454     -0.09259930
C       1.15328793      0.02344037      0.03663287
C       2.57218262      0.00821532     -0.45372508
N       0.78186245      1.19687922      0.69064366
H      -3.36242471      1.49057452     -0.98162132
H      -1.08631576     -0.98298715      1.52640137
H      -1.49761148     -2.08106592      0.23329323
H       0.72232865     -1.92218243     -0.57530007
H       2.82548794     -0.95264214     -0.89565735
H       3.26544320      0.20433926      0.36871213
H       2.73350989      0.78519772     -1.20748996
H      -0.20753425      1.39896146      0.69287852
H       1.32529734      2.00913433      0.44436199
