15
b3lypvtz=-193590.33408103
C      -0.00945643     -0.37740791      1.20855220
C      -1.20019591      0.06837853      0.29432092
C      -0.58190260     -0.88769045     -0.78497945
C       0.73254189     -0.32667957     -0.17413461
C       0.58667065      1.16813162     -0.51321655
C      -0.68235990      1.42383874     -0.20225050
O       1.93373510     -0.98812190     -0.43559599
H      -0.11225325     -1.39323249      1.59163272
H       0.31356559      0.31488232      1.98528175
H      -2.23326721     -0.01738394      0.61396050
H      -0.78069072     -0.66514553     -1.83173333
H      -0.73075914     -1.94499626     -0.56388079
H       1.35707351      1.80582357     -0.91957350
H      -1.24444105      2.34194342     -0.27399145
H       2.65173947     -0.52234017      0.00560808
