17
b3lypvtz=-194372.03704655
C      -1.68042413     -0.56166132      0.32629132
C      -0.23465492     -1.07346789      0.27063594
C       0.55030502      0.19254158     -0.04047695
C       1.64115108      0.73364254      0.82814183
C       1.95020339      0.19448216     -0.56114375
O      -0.34978200      1.15061456     -0.58612741
C      -1.64412714      0.55948389     -0.70991743
H      -2.41915840     -1.32887187      0.09624473
H      -1.90509970     -0.15330284      1.31304707
H       0.09005910     -1.54806662      1.19548901
H      -0.12077788     -1.80041665     -0.53728598
H       1.67434752      1.80679809      0.95588713
H       1.95753785      0.15754906      1.68790145
H       2.18537263      0.91960791     -1.32781247
H       2.47459335     -0.74883411     -0.64526031
H      -1.78206894      0.16103742     -1.72326291
H      -2.38747682      1.33886409     -0.54235127
