16
b3lypvtz=-227730.29659608
C       2.31878329     -1.07640340     -0.07609895
C       1.01833041     -0.61638126      0.57991710
C       0.27721889      0.44914157     -0.23903624
O       1.05242896      1.63355598     -0.42272835
C      -1.06037938      0.79347050      0.36907607
N      -2.14451704      0.13835241      0.28518061
O      -1.98150106     -1.04420930     -0.46836202
H       2.99773524     -0.24011557     -0.24149540
H       2.12190340     -1.53962645     -1.04493693
H       2.83003082     -1.81120916      0.54708315
H       0.34466730     -1.46289711      0.72087888
H       1.22036574     -0.21047941      1.57812249
H       0.10375410      0.06119169     -1.24430524
H       1.38664373      1.91827108      0.43498460
H      -1.13881191      1.71573204      0.93678839
H      -2.87397347     -1.40294560     -0.48461916
