16
b3lypvtz=-181108.85923751
C       2.65671714     -0.50889743      0.16374495
C       1.79005463     -0.23701403     -0.80432708
C       0.39342142      0.21838119     -0.60082882
C      -0.65103188     -0.74675126     -0.17231602
N      -0.08677090      0.28289277      0.78689531
C      -1.41677309      0.98771687      0.73065789
C      -2.03501542     -0.11373666     -0.16784217
H       2.38197753     -0.39225179      1.20333241
H       3.65761541     -0.85141901     -0.06202149
H       2.08469788     -0.35325304     -1.84314905
H       0.07594824      1.01276892     -1.27441523
H      -0.42656670     -1.80047073     -0.06523235
H      -1.35464829      1.99479846      0.31409614
H      -1.85141743      1.04014433      1.72629517
H      -2.77688943     -0.71145980      0.35782917
H      -2.44131909      0.17855120     -1.13718782
