19
b3lypvtz=-192747.24790032
C      -2.23395546     -0.83258204     -0.60957125
C      -1.33739765      0.07139456     -0.18135222
N      -1.60338090      1.01111494      0.82275293
N      -0.04046995      0.17992661     -0.69510744
C       1.12240958      0.17343011      0.21399158
C       1.31979808     -1.17838206      0.90685376
C       2.35869957      0.59786173     -0.57386808
H      -3.27236646     -0.77228082     -0.31802506
H      -1.94153222     -1.63837832     -1.26613734
H      -2.56254754      0.99923371      1.13321585
H      -1.30400025      1.94674267      0.58255546
H       0.09093908     -0.45733198     -1.46904937
H       0.92197862      0.92202066      0.98017365
H       1.54407050     -1.95926211      0.17510648
H       0.42049060     -1.47076489      1.44919030
H       2.14816312     -1.13647115      1.61703914
H       2.21134507      1.57729771     -1.02880426
H       2.57508495     -0.11661030     -1.37321461
H       3.23541127      0.64156197      0.07359247
