18
b3lypvtz=-205204.13711719
C       2.88241189     -0.36413336     -0.30235813
C       1.79344039      0.06800951      0.32273571
O       0.68503458      0.49278602     -0.33094380
C      -0.52272337      0.57979996      0.43996561
C      -1.43905962      1.54172708     -0.29512493
C      -1.14656034     -0.80322107      0.67014947
N      -1.65596214     -1.40584622     -0.55889474
H       2.92240330     -0.43829254     -1.37976657
H       3.75702643     -0.63280693      0.26968845
H       1.74852913      0.13824900      1.40791803
H      -0.27073770      0.99271633      1.42571473
H      -1.65018218      1.16374193     -1.29502889
H      -2.38019185      1.66358771      0.24448791
H      -0.96702400      2.51877587     -0.39056189
H      -1.90545846     -0.69341243      1.45942777
H      -0.37132818     -1.45727255      1.07365918
H      -2.59094494     -1.08309905     -0.77114408
H      -1.70090293     -2.41222027     -0.47639985
