16
b3lypvtz=-202029.52050408
C      -1.38212450     -0.82506287      0.71611250
C      -0.75803287      0.45837539      0.12311806
C       0.48499145     -0.42259546     -0.18906344
N      -0.01886668     -1.40879036      0.79699418
C       1.83290392      0.15410121      0.10806670
N       2.59791416      0.55640686     -0.81900728
N      -1.40941829      1.04359139     -1.03570609
H      -2.03778238     -1.30249453     -0.01769646
H      -1.89732962     -0.74766721      1.67505281
H      -0.52511004      1.17479220      0.91996763
H       0.44821996     -0.75068813     -1.23216637
H       0.05967153     -2.37722102      0.51344769
H       2.07500074      0.21543691      1.17614390
H       3.45549803      0.95712692     -0.43929606
H      -0.75337247      1.62640704     -1.54510253
H      -2.17216295      1.64828165     -0.75086525
