19
b3lypvtz=-192712.84528955
C       1.76186791      1.29990780      0.04786659
N       1.21655851     -0.01238277     -0.25568164
C       2.24006983     -1.03969152     -0.15857474
C       0.04413486     -0.33568901      0.55361141
C      -1.20472185      0.38841951      0.11594857
C      -2.54922403     -0.13335718      0.45362751
N      -2.01657012     -0.27520942     -0.91152225
H       1.00849763      2.07383943     -0.09622277
H       2.13490738      1.37895909      1.08535604
H       2.59100813      1.51861858     -0.62602255
H       1.83124467     -2.00103152     -0.47020474
H       3.07089558     -0.79465382     -0.82175864
H       2.64695167     -1.15340110      0.86250005
H      -0.15075444     -1.40448333      0.45631890
H       0.22809740     -0.13363032      1.62599987
H      -1.12424331      1.46860506      0.05565631
H      -3.34422888      0.57930849      0.63840943
H      -2.64336507     -1.06391485      1.00091546
H      -2.43921285      0.40521187     -1.53314280
