13
b3lypvtz=-239681.00737289
C       2.77413895      0.03173636     -0.36074678
N       1.46865005     -0.31339726     -0.87744766
C       0.46274310      0.01896644     -0.18637284
N      -0.82329613     -0.27918114     -0.62121202
C      -1.83579840      0.02874348      0.06229243
N      -3.12110203     -0.15838381     -0.31381316
F      -1.79223937      0.63381914      1.28091342
H       2.75040329      0.55821796      0.60416678
H       3.37020133     -0.87696411     -0.24683151
H       3.29602079      0.65959745     -1.08689990
H       0.56324149      0.54840257      0.77031367
H      -3.83879864     -0.11868130      0.38782498
H      -3.27416443     -0.73287580     -1.12388866
