19
b3lypvtz=-192722.01997379
C      -2.88654692      0.09148281      0.10978457
N      -1.52397312     -0.37652275     -0.10961667
C      -0.53274245      0.69122354     -0.08057790
C       0.90576886      0.20071503      0.00018673
N       1.82414707      1.32144638     -0.08297216
C       1.32298871     -1.07201726     -0.67007974
C       1.23574965     -1.00651971      0.84195975
H      -3.58045613     -0.74263133      0.00129107
H      -2.98293775      0.47175685      1.12865853
H      -3.20372135      0.89293476     -0.57562499
H      -1.47885191     -0.85162130     -1.00236185
H      -0.60604636      1.37371584     -0.94077755
H      -0.73198733      1.29799930      0.80989277
H       1.86848931      1.81236608      0.80396872
H       2.76278031      1.00902079     -0.29560436
H       0.58567476     -1.66892865     -1.18844395
H       2.30423839     -1.09794232     -1.12696175
H       0.41750172     -1.53650369      1.30862780
H       2.16281956     -0.98601734      1.39960598
