19
b3lypvtz=-192745.13558421
C      -1.95441328     -1.01425706      0.21817715
C      -0.60952025     -0.51223125     -0.28603289
N       0.48310749     -1.42401976      0.06196104
C       1.71581234     -0.68665214     -0.22220569
C       1.40988735      0.71833449      0.32777058
C      -0.13661860      0.81707562      0.33777576
N      -0.61277086      1.97027578     -0.43666291
H      -2.75075865     -0.30069567     -0.00592300
H      -2.22587439     -1.96033960     -0.25512649
H      -1.91986002     -1.17362913      1.29705017
H      -0.67064364     -0.34227228     -1.37363720
H       0.42788052     -2.29820570     -0.44608929
H       2.57092709     -1.15738314      0.26442014
H       1.93380200     -0.62564440     -1.29875916
H       1.83929289      1.49805619     -0.30098833
H       1.80979665      0.83649984      1.33441862
H      -0.48461750      0.84068406      1.37837107
H      -0.29789271      2.83104434     -0.00259656
H      -1.62689142      2.00710881     -0.42351701
