20
b3lypvtz=-182677.16250976
C      -3.23039901      0.69136174     -0.35700605
C      -2.14112529     -0.33989271     -0.06392265
C      -0.76535950      0.28409675      0.17426599
C       0.33221796     -0.74838739      0.47238102
C       1.67584880     -0.13921532      0.74612453
C       2.77226458     -0.38157532      0.02594545
N       4.06475280      0.07643460      0.29195126
H      -2.99054977      1.27628818     -1.24791558
H      -3.34459078      1.39118738      0.47406319
H      -4.19824774      0.21526693     -0.52420063
H      -2.07593603     -1.04749125     -0.89683553
H      -2.42522502     -0.93124711      0.81240158
H      -0.82908425      0.99224525      1.00787968
H      -0.47199638      0.87284679     -0.70059335
H       0.41264100     -1.44374739     -0.36915592
H       0.01222132     -1.35086013      1.33198782
H       1.74334987      0.53603998      1.59672117
H       2.72072159     -1.05429347     -0.82458734
H       4.11192180      0.85277998      0.93548453
H       4.62647407      0.24826251     -0.52748916
