15
b3lypvtz=-214483.34377867833
C      -1.98022077      1.45608081      0.50450929
C      -1.60040579      0.53695087     -0.38482229
C      -0.36420073     -0.24451199     -0.34871551
N      -0.40436332     -1.59633127     -0.79087490
H       0.17727618     -1.77646975     -1.59964859
H      -1.33993465     -1.93066362     -0.96486957
H       1.76007702     -1.49023677      0.27077135
C       0.81096178      0.25301562      0.07532352
N       1.98296671     -0.51599271      0.07403640
O       2.87247500     -0.08178635      1.11802031
H      -2.89605118      2.01606287      0.37386918
H      -1.38620210      1.67740934      1.38195910
H      -2.26402291      0.31531767     -1.21852002
H       0.93967992      1.28998782      0.34005585
H       3.69196486      0.09116744      0.64304414
