18
b3lypvtz=-228510.88087536
C       1.99376623     -0.83887074     -0.21945719
N       0.74642766     -0.23211373     -0.67442010
C      -0.13114597      0.24416384      0.39762471
C      -1.07911338      1.29712058     -0.16204131
O      -0.29303394      2.35135633     -0.72379761
C      -0.91760067     -0.94657805      0.96400861
O      -1.54491065     -1.68426756     -0.07017170
H       2.61368079     -1.07756626     -1.08343524
H       1.79476019     -1.77339466      0.30651636
H       2.57339667     -0.19138957      0.45433908
H       0.95101150      0.55186121     -1.28102508
H       0.44465184      0.70558243      1.21549355
H      -1.71065559      1.67443576      0.64889657
H      -1.72244245      0.84225849     -0.91979638
H      -0.86594878      2.92640496     -1.23762510
H      -0.24347920     -1.58690861      1.54626187
H      -1.69760989     -0.59672778      1.64336610
H      -0.91185435     -1.66536665     -0.80473712
