19
b3lypvtz=-171827.8350262
C       2.36165468     -0.70729431     -0.08244031
C       1.46737423      0.11232615      0.45654074
C       0.04248740      0.30392561      0.03382340
C      -0.15858790      1.73978237     -0.46765461
C      -0.60676469     -0.74376940     -0.92029961
C      -1.86112764     -0.76854532     -0.01196976
C      -1.03688714     -0.08170268      1.10442227
H       3.37444312     -0.76077800      0.29481401
H       2.12280088     -1.35094076     -0.91993861
H       1.77467978      0.73924266      1.29201673
H       0.12799057      2.46358054      0.29891916
H      -1.20286483      1.92518455     -0.72703704
H       0.45047767      1.92834284     -1.35372861
H      -0.74280307     -0.43888863     -1.95806001
H      -0.08020358     -1.69705785     -0.90414399
H      -2.27896677     -1.74688988      0.21990484
H      -2.66373779     -0.13525179     -0.38829745
H      -1.50478236      0.74298577      1.64315790
H      -0.64898157     -0.79860387      1.82774494
