14
b3lypvtz=-180326.3351633
C       2.79778266     -0.67084381     -0.02802798
C       1.64367364     -0.34542997      0.06804608
C       0.27659260      0.01952569      0.18575823
C      -0.86079564     -0.91306262      0.62974084
N      -1.82907907     -0.22984482     -0.29669186
C      -0.73143818      0.59078518     -0.83347365
C      -0.20427900      1.46064952      0.24594665
H       3.81649914     -0.95457962     -0.11560014
H      -1.14614315     -0.87189804      1.68246452
H      -0.66265240     -1.94535170      0.34345503
H      -2.16791501     -0.88397151     -0.99082194
H      -0.60945972      0.79152523     -1.88844507
H       0.54544230      2.18249063     -0.04730601
H      -0.86832817      1.76990584      1.04505529
