17
b3lypvtz=-191982.88558808
C      -2.10762032      0.91488987     -0.13623592
C      -1.18116960     -0.04729016     -0.00657947
C      -1.61858097     -1.49017560      0.08877573
C       0.25286119      0.24194087      0.03567775
N       0.68781912      1.59268709      0.04500238
C       1.19157046     -0.72556823     -0.01703784
N       2.56302003     -0.43387309     -0.01980544
H      -3.16065838      0.67071583     -0.15707408
H      -1.86400975      1.96086650     -0.26100142
H      -2.70499335     -1.55664109      0.09133463
H      -1.24685203     -1.96344693      1.00001393
H      -1.25125118     -2.07658919     -0.75634717
H      -0.02415245      2.21984245      0.38940994
H       1.51404128      1.70237576      0.62181912
H       0.92372711     -1.76932949     -0.01644666
H       2.80257410      0.36801263     -0.58976814
H       3.14698073     -1.21954023     -0.25813235
