14
b3lypvtz=-227001.16815014032
C       0.77314860     -0.91786504     -0.29800274
C      -0.32958527      0.08032440     -0.75001677
C       0.49581912      1.13207020      0.04285685
N       1.06429466      0.00602531      0.82992757
C      -1.68309932     -0.20888773     -0.11967352
O      -1.66317508     -0.42435370      1.21375199
O      -2.70751454     -0.24806254     -0.74515122
H       0.46956370     -1.92248439     -0.00502873
H       1.57693845     -0.97833711     -1.03752027
H      -0.46665800      0.23879306     -1.81353458
H       1.22384143      1.63016717     -0.60405949
H      -0.04414218      1.87687674      0.62689846
H      -0.73879697     -0.35157948      1.53391833
H       2.02936543      0.08731310      1.12563412
