15
b3lypvtz=-191228.72782863
N      -3.05928388     -0.79187630     -0.25913079
C      -2.20874927     -0.01731799     -0.28485377
C      -1.12737499      0.96333798     -0.29106212
C      -0.02648597      0.65045012      0.75489297
C       0.69281542     -0.64178184      0.50668203
C       1.91244650     -0.76990028     -0.02812085
N       2.74654185      0.23642527     -0.50302329
H      -1.56359549      1.94676107     -0.09871512
H      -0.69232291      0.98822529     -1.29191857
H       0.66264880      1.49844092      0.75286483
H      -0.49049176      0.63856886      1.74407890
H       0.16275621     -1.55196057      0.75230150
H       2.31650053     -1.76412484     -0.17628931
H       2.56234747      1.16954728     -0.16980473
H       3.72985650      0.02038804     -0.48630269
