11
b3lypvtz=-236246.9450978243
C      -0.14693359      1.48351747     -0.22798243
C       0.20138967      0.21718361     -0.03651677
C      -0.73645028     -0.91083215      0.15122476
N      -1.98676969     -0.69678600      0.13705156
N       1.65029036     -0.11904841     -0.00451928
O       1.94322818     -1.29382177      0.17373839
O       2.45570014      0.78246562     -0.15561687
H      -1.19851758      1.73153488     -0.25159227
H       0.59760293      2.25302418     -0.35785058
H      -0.27482568     -1.88523908      0.29422965
H      -2.50471449     -1.56199835      0.27783385
