12
b3lypvtz=-221411.01795504
C      -2.50839893     -0.26904738     -0.00021698
N      -1.44961039      0.72392902     -0.00021715
C      -0.25680125      0.29587080     -0.00002654
N       0.31019140     -0.97337986      0.00020898
H      -0.15440813     -1.86196112      0.00091265
N       1.67799606     -0.92298512      0.00044496
N       2.02182268      0.28872901     -0.00007831
N       0.90335742      1.05485807     -0.00004772
H       0.96484263      2.05682923     -0.00037469
H      -2.48224507     -0.91608898      0.88804633
H      -2.47960381     -0.91922257     -0.88613563
H      -3.47277563      0.23603189     -0.00254092
