16
b3lypvtz=-181133.71595454
C      -1.58427474     -0.50856498      1.02486398
C      -0.49021078     -0.10390540      0.07255078
C       0.68175084     -1.06923718     -0.14038853
C       1.85962440     -0.12914579     -0.23389418
C       1.46272459      1.12551820     -0.04088763
N       0.06231863      1.27339875      0.21495579
C      -0.74672544      0.91157483     -0.97747122
H      -2.28653263      0.30971725      1.18138370
H      -1.16726337     -0.78832149      1.99470081
H      -2.13793766     -1.36657574      0.63559428
H       0.56633151     -1.69741940     -1.02811874
H       0.77108908     -1.74967423      0.71331191
H       2.87541121     -0.44527361     -0.42062083
H       2.07157892      2.01841724     -0.04798030
H      -1.71989774      1.38502763     -1.02751898
H      -0.21828681      0.83466391     -1.92058085
