18
b3lypvtz=-205224.93193401
C      -2.44263961     -0.72155317     -0.00028411
N      -0.99099464     -0.77407824     -0.00019312
C      -0.32896128      0.30182798      0.00014876
O      -0.84854162      1.56897677      0.00045310
C       1.18562756      0.31899857      0.00023421
C       1.73262695     -0.34966821     -1.26764533
C       1.73253742     -0.35103086      1.26742627
H      -2.84535525     -0.21584764     -0.88838070
H      -2.83867112     -1.73528333     -0.00062668
H      -2.84547691     -0.21639960      0.88807071
H      -1.81249215      1.52325448      0.00037095
H       1.48576414      1.36818568      0.00080081
H       1.41683049     -1.39184079     -1.31169625
H       1.37457021      0.15199594     -2.16808900
H       2.82337353     -0.31510641     -1.27322710
H       1.41674497     -1.39325112      1.31033456
H       2.82328269     -0.31646182      1.27312529
H       1.37440860      0.14965976      2.16838464
