13
b3lypvtz=-237060.79537996
C      -1.46571422      1.49768398      0.12733641
N      -1.18589453      0.40658196      0.73587401
C      -0.30441452     -0.55882464      0.38426488
C       0.74231080     -0.52921591     -0.48333230
N       1.06823331      0.49618220     -1.34448827
O       1.58987703     -1.58127496     -0.57776526
O      -0.40419934     -1.75401259      1.11253979
H      -2.18704848      2.16643713      0.58440196
H      -1.07586924      1.79014927     -0.84781090
H       2.02450382      0.43511383     -1.66419328
H       0.82795681      1.42069903     -1.01485988
H       1.27714237     -2.24774383      0.05226353
H      -0.90688381     -1.54177548      1.90710486
