12
b3lypvtz=-202911.31464433
C      -2.82737060     -0.70942856     -0.04852474
C      -1.82464245      0.08477305      0.30598684
C      -0.48832497      0.01680408     -0.30963910
O       0.20959733      1.25827627     -0.50447954
C       0.73105176      0.35425710      0.46369778
C       1.99335872     -0.28078586      0.15769025
N       2.99714189     -0.79910966     -0.06082945
H      -2.71325194     -1.45535433     -0.82575867
H      -3.79597840     -0.64317014      0.42701107
H      -1.95564678      0.83604461      1.07747996
H      -0.36804111     -0.68756486     -1.12702424
H       0.62730053      0.66777729      1.49743685
