17
b3lypvtz=-217665.51893793
C      -2.68465995     -0.07763390     -0.58602822
C      -1.26530092     -0.57197488     -0.39750126
O      -0.39162256      0.55288401     -0.39480231
C       0.95191803      0.21492027     -0.24062166
C       1.85153992      1.27435716      0.31773482
C       1.53235099      0.06368661      1.14221773
O       2.59290283     -0.82676488      1.36691167
H      -3.38079625     -0.91778146     -0.59652271
H      -2.96744357      0.59512818      0.22407147
H      -2.78043597      0.46251737     -1.52817425
H      -1.16661458     -1.12190803      0.54705225
H      -0.98260456     -1.25676277     -1.20786201
H       1.36074087     -0.43259362     -1.01376374
H       2.85132024      1.34316520     -0.08717949
H       1.39370307      2.21071621      0.60350626
H       0.84966516      0.20597465      1.97506242
H       2.23543725     -1.71793013      1.43769902
