12
b3lypvtz=-202939.56776266
N       1.66126469     -1.23747307      0.00000183
C       0.52893847     -0.67911640     -0.00000114
C      -0.86800375     -1.27718691     -0.00000384
C      -1.76134637     -0.06480330     -0.00001181
C      -1.08752158      1.09043534     -0.00001180
C       0.36970016      0.84591765     -0.00000523
O       1.26043524      1.65920510     -0.00000798
H       1.57743560     -2.25649949      0.00000283
H      -1.03567978     -1.90875789      0.87761224
H      -1.03567335     -1.90876539     -0.87761568
H      -2.84001161     -0.15075566     -0.00001762
H      -1.51233671      2.08305101     -0.00001681
