17
b3lypvtz=-194391.52926038
C       2.45268831     -0.55279547     -0.21900045
C       1.12776530     -0.11063419      0.39179879
C       0.67291635      1.31880074     -0.01599686
C      -0.82993198      1.22369704     -0.03919897
C      -1.22498199     -0.04745195     -0.01336200
O      -2.51987188     -0.47076013     -0.09497033
C      -0.07643807     -1.01827597      0.04249897
H       2.39490373     -0.56750138     -1.31007926
H       3.26068066      0.12632502      0.06093185
H       2.73350259     -1.55450214      0.11369748
H       1.22788895     -0.11696218      1.48031505
H       1.04816254      2.07168656      0.68208284
H       1.07153012      1.58934248     -1.00219339
H      -1.49381927      2.07165959     -0.12389032
H      -2.55201492     -1.42221447      0.03902989
H      -0.22920031     -1.81105663      0.78240154
H       0.05258887     -1.51221192     -0.92901284
