15
b3lypvtz=-214503.49002054
C       3.00330788     -0.66134746      0.08222573
N       1.83333122     -0.26521128      0.38366148
N       1.05135473      0.28984630     -0.58060204
C       0.00223276      1.17291591     -0.07953589
C      -1.08711943      0.39845288      0.67064585
C      -1.91807852     -0.48492454     -0.22413402
O      -3.11455367     -0.60477921     -0.13619560
H       3.59208034     -1.14262190      0.85102032
H       3.43543219     -0.54826321     -0.91564456
H       1.55969613      0.66042308     -1.37926667
H       0.40888699      1.94619203      0.58151577
H      -0.42096719      1.67986858     -0.94900429
H      -1.75290466      1.07727123      1.20410671
H      -0.59466669     -0.23875917      1.41191828
H      -1.35024309     -1.04247725     -0.99565508
