15
b3lypvtz=-240224.58202669
C      -1.56117279      0.89329847      0.21305933
C      -0.74959121     -0.40290718      0.19990702
O      -1.10474351     -1.23572934     -0.90059354
C       0.72850596     -0.14804708      0.13410273
O       1.28850677      0.47677832      1.25131711
C       1.52043611     -0.38655078     -0.90806005
O       2.85568040     -0.11896523     -0.92582325
H      -1.22594628      1.54642575      1.01892662
H      -1.43464799      1.41825495     -0.73447362
H      -2.62363206      0.68518863      0.36697464
H      -0.95154912     -0.94133214      1.14296124
H      -2.06008008     -1.20642369     -1.00410094
H       1.09194596     -0.04102277      2.04069060
H       1.14524518     -0.80817194     -1.82555898
H       3.08124267      0.26900401     -0.06942892
