16
b3lypvtz=-204459.59645498
C       3.32155835      0.15413135      0.00001200
C       1.97977494     -0.50896108      0.00000465
C       0.83472806      0.15769344      0.00000682
O      -0.36445910     -0.53165814      0.00000199
C      -1.53608273      0.16524422     -0.00000687
C      -2.68905439     -0.79732502      0.00001467
N      -1.55612791      1.42915277     -0.00002327
H       3.90692147     -0.13459166      0.87738222
H       3.90692525     -0.13457980     -0.87735959
H       3.23074513      1.24078766      0.00001915
H       1.94818159     -1.59335576     -0.00000264
H       0.73859187      1.23325144      0.00001228
H      -3.63848450     -0.26716056     -0.00007967
H      -2.63673648     -1.44219559      0.87833980
H      -2.63664496     -1.44235098     -0.87818982
H      -2.50913458      1.77603669     -0.00002674
