14
b3lypvtz=-203674.6849770472
C      -1.48032673      0.80559258      0.26106464
C      -1.94454654     -0.57201170     -0.11726544
N      -0.88044879     -1.24265394      0.12789164
C      -0.17835455      0.00753542      0.58434394
C       1.07885956      0.34525466     -0.20826009
C       2.17123165     -0.67983186     -0.00825393
O       3.28518954     -0.41311198      0.36571284
H      -1.40083958      1.52423262     -0.55614620
H      -1.98328142      1.27939947      1.10506707
H      -2.88373214     -0.97182184     -0.49315687
H       0.04523390     -0.04741771      1.65158625
H       1.46452236      1.32585990      0.07474656
H       0.82750285      0.36380318     -1.27534402
H       1.87898990     -1.72482881     -0.22709408
