14
b3lypvtz=-203675.24054884
C       2.19662665      0.38883733      0.10974464
C       0.87703634      0.18924281      0.03328450
C       0.21618151     -1.11340897     -0.24614018
C      -1.23235743     -0.88159765     -0.27916590
O      -0.64115889     -1.54738650      0.83554620
C      -1.47960138      0.58943188     -0.02557336
N      -0.13698568      1.13353896      0.16827697
H       2.87597511     -0.44446764      0.01745220
H       2.62076435      1.36800914      0.28405729
H       0.72492448     -1.89774069     -0.78947412
H      -1.92111605     -1.46421011     -0.87817502
H      -1.97943863      1.04381949     -0.88789857
H      -2.11449943      0.73656352      0.85279957
H      -0.00635096      1.89936843      0.80526577
