15
b3lypvtz=-214539.78410802
C       2.35463464     -0.55081959      1.11911177
C       1.35553832      0.21448883      0.66219618
O       1.31522215      1.54192308      0.81354915
N       0.26059951     -0.36582384     -0.02392017
C      -0.83093981      0.26759266     -0.55125765
C      -1.81814660     -0.65653137     -1.22085234
N      -0.95388121      1.54261236     -0.45516483
H       3.18118342     -0.09685904      1.63968780
H       2.34929686     -1.62027599      0.97617641
H       0.48153286      1.88508219      0.39218881
H       0.30838526     -1.36408124     -0.12720176
H      -2.19826543     -1.39332979     -0.51050832
H      -1.34364452     -1.19737624     -2.04195643
H      -2.65855711     -0.09248052     -1.61779877
H      -1.80305833      1.88587850     -0.88434985
