15
b3lypvtz=-242834.65846777
C      -1.67039637     -1.56020711     -0.02007090
C      -0.77966899     -0.36019867     -0.29545466
C      -1.34900841      0.91083809      0.30408600
F      -0.57665093      2.00604951     -0.07445081
O       0.50965282     -0.63701326      0.27798801
C       1.61015827     -0.10527908     -0.32258167
N       2.78573396     -0.24266833      0.09886620
H      -1.22877283     -2.45841515     -0.44826042
H      -2.65828903     -1.41780557     -0.45917151
H      -1.78529376     -1.71650177      1.05315276
H      -0.66404920     -0.21486396     -1.37386919
H      -2.36718498      1.08086227     -0.05232084
H      -1.34299587      0.85629017      1.39429194
H       1.40250019      0.45915512     -1.22968341
H       2.80611114     -0.78713525      0.96195751
