13
b3lypvtz=-190458.39264904
C      -1.69549401     -1.25757577      0.00000629
C      -0.51776103     -0.64477389      0.00000374
C       0.86221299     -1.26651122      0.00000151
N       1.82745437     -0.15480466     -0.00000063
C       1.19313023      0.94906120      0.00001319
C      -0.28449584      0.82731008      0.00000332
N      -1.07185867      1.82589346     -0.00000456
H      -1.78307462     -2.33633772      0.00000120
H      -2.62362157     -0.69719251      0.00001070
H       1.04594558     -1.89192577     -0.87696835
H       1.04594950     -1.89192960      0.87696791
H       1.69937201      1.90804986      0.00000246
H      -2.05026093      1.53064554     -0.00001777
