14
b3lypvtz=-203645.35537877
C       2.12587372      0.67353696      0.56570517
N       1.28684245     -0.26801917      0.68378311
C      -0.00547132     -0.12968606      0.16719650
C      -0.56048251      0.86170476     -0.85775633
O      -1.38414167     -0.18006978     -1.45926984
C      -0.84166013     -1.16431423     -0.57470268
C      -1.17011719     -0.85144674      0.83521552
H       3.12441994      0.54105078      0.97209130
H       1.91144936      1.62812471      0.07584611
H       0.18066740      1.21281889     -1.57843864
H      -1.15414430      1.70051311     -0.48846486
H      -0.58692750     -2.13504404     -0.97477400
H      -2.07996152     -0.31039097      1.06671107
H      -0.84634674     -1.57877821      1.56685758
