15
b3lypvtz=-214524.7173671
C       2.09182730      1.08297664      0.24426059
C       1.33661526     -0.21009060      0.03205107
O      -0.07239762      0.08565442      0.12555031
C      -0.92339261     -0.94293517     -0.04158420
N      -0.52421249     -2.12364936     -0.26963126
N      -2.29740515     -0.60951644      0.05693617
C      -2.63860802      0.59483572      0.25946695
H       1.82874765      1.82004863     -0.51516621
H       1.87681608      1.50646236      1.22588271
H       3.16480331      0.89597809      0.18088137
H       1.53696809     -0.64796149     -0.94642533
H       1.58584176     -0.96036042      0.78329068
H      -1.33455628     -2.73015457     -0.35810364
H      -1.93141153      1.41730275      0.36641170
H      -3.69963577      0.82140944      0.32887451
