11
b3lypvtz=-267225.40476806
N       0.38924813     -1.71625060     -0.00036433
C       0.77612013     -0.51034993     -0.00122584
F       2.08740418     -0.17309313     -0.00101457
C      -0.10655413      0.62598232      0.00165740
F       0.47463070      1.85451782     -0.01152252
C      -1.45711894      0.55086237      0.01851506
N      -2.18026190     -0.59076171     -0.01422763
H       1.16896247     -2.36703876      0.00804218
H      -2.01015258      1.48128399      0.03593588
H      -3.16276444     -0.56173634      0.18143367
H      -1.67557163     -1.46595802      0.05005969
