12
b3lypvtz=-223811.17667641
C      -2.59088048      0.00623967     -1.02217218
C      -1.31330310      0.34755804     -0.88770395
C      -0.45585141     -0.25436190      0.16457919
O      -0.84288389     -1.04769606      0.99003005
N       0.87686245      0.27706496      0.10787510
N       1.71861877     -0.47833031      0.65644958
N       2.92675699      0.02578630      0.70672270
H      -3.21591760      0.43597369     -1.79309498
H      -3.03550582     -0.71849526     -0.35196144
H      -0.84376615      1.07208305     -1.53994701
H       3.65604961     -0.58661596      1.02293100
H       3.11982060      0.92089378      0.27019193
