14
b3lypvtz=-203676.67429503
O       1.56177179     -1.51160137     -0.08818605
C       1.02696150     -0.32680523      0.49036610
C       1.19992273      0.91197727     -0.38743126
N       0.16303477      1.61826035     -0.58247104
C      -0.95266307      0.98604340      0.10704984
C      -1.37528784     -0.33185709     -0.47475255
C      -0.47180976     -0.29554329      0.74050306
H       1.02337483     -1.74385172     -0.85281486
H       1.57825542     -0.20746092      1.42649089
H       2.15087429      1.15643505     -0.85221899
H      -1.68010833      1.65037500      0.54906214
H      -2.39349896     -0.65665923     -0.31032771
H      -0.97134138     -0.59221961     -1.44588239
H      -0.85948599     -0.65719260      1.68081282
