17
b3lypvtz=-194380.39458168
C       2.61551321     -1.10830239     -0.07501988
C       2.00305953      0.00638817      0.31468354
C       0.62527750      0.39793338     -0.00920761
O       0.51229724      1.76786006     -0.04196772
C      -0.38934687     -0.45310986     -0.21395568
C      -1.80806371     -0.10051566     -0.55049251
C      -2.81267873     -0.53205383      0.52788815
H       2.13305020     -1.83473709     -0.71614432
H       3.62854387     -1.32383903      0.23589978
H       2.54265757      0.73369320      0.91232434
H      -0.40644181      2.00921878     -0.19885893
H      -0.16949262     -1.50673797     -0.09985587
H      -1.92347645      0.97274661     -0.73627082
H      -2.08127475     -0.58064009     -1.49652490
H      -3.83621608     -0.29870982      0.22888716
H      -2.60999771     -0.03098939      1.47542427
H      -2.75245840     -1.60737707      0.70448601
