13
b3lypvtz=-234641.44377933
C      -1.42216312     -1.21491245      0.32746010
C      -0.57849463     -0.18818641      0.11036305
N      -1.15172337      1.11375690     -0.03704571
N       0.78618974     -0.46170791      0.04430711
N       1.51374229      0.53307524     -0.16451050
N       2.84312055      0.23100576     -0.13914574
O      -2.75391314     -1.05900903      0.40449800
H      -1.07779229     -2.23014567      0.45385346
H      -0.77495963      1.74730561      0.66157434
H      -0.89509538      1.51542096     -0.93363054
H       3.04697689     -0.75304826     -0.29146373
H       3.37130023      0.87103652     -0.71112609
H      -2.90718815     -0.10459123      0.27486625
