16
b3lypvtz=-202058.9289552
C      -1.50950812      1.76794399      0.08006394
C      -0.83840487      0.43257940     -0.05915668
C      -1.50233311     -0.72376538      0.07639450
N      -0.95833046     -2.01813869     -0.03635303
N       0.51947101      0.49180946     -0.45645475
C       1.42064478      0.06894707      0.33318943
N       2.74374492      0.00670548     -0.02192734
H      -1.06499283      2.35645294      0.88913414
H      -1.39058978      2.35250439     -0.83636565
H      -2.57451603      1.65811128      0.28508197
H      -2.55632295     -0.70130754      0.32125082
H      -1.60909339     -2.67805995     -0.43792749
H      -0.09182826     -2.03239856     -0.55848585
H       1.21123346     -0.31242469      1.33728663
H       3.42624331      0.01078763      0.71618957
H       2.99856933      0.51066517     -0.85741621
