13
b3lypvtz=-234609.33932787
C      -2.58525336      0.84464574     -0.12863211
N      -1.18675309      0.46920091     -0.06839858
C      -0.89138089     -0.71165709     -0.35787344
O       0.35913998     -1.24774695     -0.36019305
N       1.39189586     -0.27245546     -0.22674056
N       2.39746792     -0.87571617      0.14270875
N       3.49847460     -0.08568752      0.18040506
H      -3.25567153      0.02209336     -0.41322116
H      -2.89931572      1.22664639      0.84462023
H      -2.71294601      1.65683673     -0.84692156
H      -1.59143762     -1.50488651     -0.63573654
H       3.31319640      0.91179640      0.22566794
H       4.16258345     -0.43306985      0.85279928
