19
b3lypvtz=-195132.56403343
C      -2.51688471     -0.47477581      0.04170914
C      -1.31098138     -0.53110265     -0.50525896
C      -0.04888527      0.15744643     -0.03243923
C       0.25093735      1.33339261     -0.97918500
C      -0.13624589      0.63690480      1.41777190
O       0.94529757     -0.88254274     -0.16972766
C       2.29712620     -0.55487157      0.08173387
H      -2.72576943      0.08291933      0.94530613
H      -3.35306644     -0.99565126     -0.40596574
H      -1.15812042     -1.11548179     -1.40697379
H       1.16016402      1.86106502     -0.68837290
H       0.36914972      0.97707715     -2.00312722
H      -0.57216005      2.04736869     -0.95718036
H       0.78669808      1.13004601      1.72231054
H      -0.94127135      1.36176124      1.53823205
H      -0.32050585     -0.20353743      2.08614691
H       2.86003702     -1.47816695     -0.04733305
H       2.68876977      0.18724446     -0.62127368
H       2.46286407     -0.19333756      1.10159903
