15
b3lypvtz=-216917.44877966
C       2.67511313     -0.49189021      0.74101621
C       1.65001315      0.22856919      0.27358908
O       1.77504693      1.58955552      0.18482074
C       0.38077100     -0.38045779     -0.11504211
C      -0.74368902      0.26599215     -0.43159655
C      -2.01643609     -0.41063265     -0.84304249
O      -3.08697846     -0.19946794      0.07964550
H       3.60391901     -0.01984355      1.02436708
H       2.57623852     -1.55862457      0.86665532
H       1.11122437      1.93169379     -0.42216291
H       0.38553526     -1.46445104     -0.13586069
H      -0.79061813      1.35204779     -0.37674303
H      -2.31061607     -0.08096191     -1.84778249
H      -1.86931001     -1.48970115     -0.88333368
H      -3.34031359      0.72827239      0.05527003
