14
b3lypvtz=-203689.80432836
C      -0.60316802     -1.12413978     -0.09930869
C      -1.34817120      0.21749242     -0.26226391
C      -0.45727974      1.26336120      0.41348426
O      -0.81781520      2.30367421      0.90366710
C       0.93781690      0.71582381      0.43760390
C       0.85195862     -0.73553224      0.11723119
N       1.33755992      0.19211714     -0.90330589
H      -0.72010339     -1.78205847     -0.96119579
H      -0.96711078     -1.65825054      0.78083478
H      -2.34233768      0.23091564      0.17913864
H      -1.44592423      0.49422602     -1.31350006
H       1.68052851      1.15355851      1.08844509
H       1.54211014     -1.44154597      0.56044075
H       2.35193615      0.17035807     -0.94127133
