13
b3lypvtz=-190434.35839613
C       2.49431651      0.03748832     -0.25227144
C       1.38021693     -0.33108893     -0.01169373
C       0.00385711     -0.73775080      0.28046390
C      -1.02286584      0.35180545     -0.13492902
N      -0.80535263      1.54845047      0.66368976
C      -0.32093948     -2.01724650     -0.36329443
N      -0.61570645     -3.00834790     -0.86597883
H       3.48799823      0.34620917     -0.46349152
H      -0.09682255     -0.87331946      1.36189944
H      -0.94809792      0.49557131     -1.21905996
H      -2.01881141     -0.03527343      0.07980388
H      -1.57559540      2.19497208      0.55264137
H       0.03780290      2.02853019      0.37222059
