15
b3lypvtz=-237839.57888275
N       2.18925315     -0.81559303      0.03558503
C       1.30056929      0.16693915     -0.58637272
C       0.30606340      0.71713757      0.43407927
N      -0.54526181      1.77686532     -0.00656055
O      -0.49734981     -0.39448023      0.98697825
C      -1.45092972     -0.93464395      0.22763841
O      -1.71134573     -0.66765560     -0.91610763
H       2.89486233     -1.12068222     -0.62318338
H       1.66735166     -1.63914648      0.31030312
H       0.74955651     -0.19722488     -1.46066362
H       1.90791498      1.01481088     -0.91133158
H       0.85786192      1.04558297      1.31194190
H      -0.14130937      2.68622126      0.15725314
H      -0.84324794      1.67684833     -0.96660531
H      -1.98432087     -1.69513810      0.81553067
