15
b3lypvtz=-170296.51883779
C       3.32658187      0.42698836      0.11741352
C       1.83490498      0.39468837      0.15762328
C       1.07053971     -0.40940161     -0.59371450
C      -0.34306094     -0.44245242     -0.55724571
C      -1.55203125     -0.49074109     -0.54531464
C      -2.96454040     -0.57320103     -0.55695864
C      -3.78418962      0.15469336      0.20893387
H       3.72737280     -0.28715959     -0.60220638
H       3.68981293      1.42362465     -0.14999782
H       3.74982738      0.19784466      1.09981309
H       1.34773301      1.07520858      0.84824755
H       1.54953597     -1.09425209     -1.28862454
H      -3.39093077     -1.29151037     -1.25101287
H      -4.85633325      0.03368195      0.14233501
H      -3.40532243      0.88188824      0.91400878
