18
b3lypvtz=-181917.90652449
N       2.91459785      0.01808467      0.15407995
C       1.77157122     -0.03864805     -0.38833711
C       0.42012311      0.02292138      0.26195894
C      -0.45671143      1.18719755     -0.24038291
C      -1.86824717      0.78366121      0.19906548
C      -1.92545457     -0.74033591     -0.04056661
C      -0.45075820     -1.22907918     -0.02359655
H       2.82686213      0.11728832      1.16894231
H       1.74810797     -0.14747271     -1.47829727
H       0.55983570      0.13114231      1.34230297
H      -0.13644582      2.15269037      0.15198210
H      -0.40160167      1.24218215     -1.33228943
H      -2.64999274      1.32450447     -0.33479404
H      -1.99426124      1.00385429      1.26200244
H      -2.38296864     -0.95740744     -1.00655290
H      -2.53090878     -1.24437888      0.71251755
H      -0.17889666     -1.65332654     -0.99248533
H      -0.27312208     -2.00762302      0.71758942
