10
b3lypvtz=-308015.57449098
O      -2.41316703     -0.43619012     -0.43326871
C      -1.23549249     -0.35786849     -0.65245332
C      -0.19213638     -0.37070440      0.45228827
C       0.99738838      0.51538294      0.16482418
F       1.89028374      0.48294552      1.17019563
F       1.64117099      0.13283289     -0.95949312
F       0.62823140      1.80060855     -0.00770878
H      -0.84374035     -0.30081504     -1.68531557
H      -0.65268143     -0.07271747      1.39211142
H       0.18014318     -1.39337440      0.55882000
