20
b3lypvtz=-205975.64917197
N       3.72568380     -0.37219662     -0.09301011
C       2.53630111      0.47645045      0.03550269
C       1.26351756     -0.36085433     -0.04239862
C      -0.01620680      0.47322963      0.02829730
C      -1.29233508     -0.36746693     -0.04424039
C      -2.56379456      0.46930064      0.03695131
O      -3.75382673     -0.30312803     -0.09538700
H       4.56684377      0.19234102     -0.09814223
H       3.80138495     -0.99314359      0.70512768
H       2.51887068      1.07217182      0.96072903
H       2.54825809      1.18939962     -0.79345694
H       1.26554213     -1.09044097      0.77589732
H       1.28517562     -0.93938908     -0.96940800
H      -0.01862317      1.05928043      0.95367731
H      -0.01787936      1.20005235     -0.79126555
H      -1.29365291     -1.09826489      0.77346235
H      -1.31192578     -0.94131082     -0.97457414
H      -2.59343145      1.18760644     -0.78445703
H      -2.57646637      1.04550674      0.97140484
H      -3.78344848     -0.94087388      0.62441918
