16
b3lypvtz=-204424.38742551
C       1.63005702     -0.40764196     -0.60914171
C       0.44006558     -0.02010842      0.24961318
C      -0.36222513      1.21709727     -0.25921000
C      -1.57051702      0.30247119     -0.48038407
C      -0.81318433     -0.89357394      0.01486816
N      -1.95690985     -0.37659808      0.74590331
O       0.81689787      0.14895679      1.61474873
H       2.41325377      0.34797200     -0.53669899
H       1.34267663     -0.51450827     -1.65624844
H       2.04504898     -1.36525062     -0.28087320
H      -0.49836177      2.01683298      0.46962281
H       0.05631182      1.63164390     -1.17561887
H      -2.29424326      0.36992748     -1.28009949
H      -0.82489480     -1.92349830     -0.31931991
H      -1.66891760      0.12503855      1.58244283
H       1.24494209     -0.65876061      1.92039567
