13
b3lypvtz=-190415.02543793
C      -0.57333314      0.74725990      1.08061009
C      -0.78659361      1.12062923     -0.18923779
C      -0.27768421     -0.08037936     -0.98741028
C       1.06089065     -0.31097464     -0.20126829
N       2.30061429     -0.31445782     -0.31633846
C       0.04699832     -0.64344474      0.92825373
N      -0.74032298     -1.26571022     -0.19128185
H      -0.69116356      1.30875716      1.99366207
H      -1.12499356      2.06598687     -0.58291406
H      -0.36711083     -0.10796381     -2.06886581
H       2.60647291     -0.05887992     -1.25427695
H       0.28987739     -1.24467150      1.79740890
H      -1.74365165     -1.21615115     -0.00834130
