14
b3lypvtz=-255324.38114521
C      -2.67049426     -0.11925096     -0.39771474
O      -1.43040863     -0.71113549      0.02985940
C      -0.42975398      0.15062469      0.28467675
O      -0.52657115      1.34581126      0.16999133
C       0.81115608     -0.57227568      0.76935693
C       2.08669517      0.08928557      0.29411162
F       2.23540190     -0.11639652     -1.07809149
H      -3.05334379      0.55660716      0.36519902
H      -2.52654828      0.43499262     -1.32349475
H      -3.35269219     -0.94985413     -0.55087983
H       0.78963192     -0.54857426      1.86356144
H       0.78270502     -1.61784789      0.46654568
H       2.05779123      1.16469430      0.46825677
H       2.95694597     -0.34549266      0.78791085
