14
b3lypvtz=-180337.19115877
N       0.80172669      1.21412507     -0.58220363
C       1.26295888      0.07622167      0.18275869
C       0.18821201     -0.48254656      1.11885236
C      -1.11095405      0.09143874      0.52679763
C      -0.60830635      0.90295279     -0.66996600
C      -0.80633875     -0.58193901     -0.80079570
C       0.49696971     -1.15774592     -0.20683163
H       0.93912649      2.07093520     -0.05306750
H       2.31016266      0.02185217      0.44040402
H       0.35881878     -0.82193970      2.12843036
H      -2.05326984      0.24380338      1.02918631
H      -1.25574387      1.59725030     -1.18448833
H      -1.46358091     -1.05625470     -1.51243673
H       0.94031856     -2.11835342     -0.41673986
