15
b3lypvtz=-214533.78253211
C       2.13000896      0.21157077      0.93744476
C       0.97015559      0.56819243      0.05949604
C      -0.18699573     -0.11086218      0.05758881
C      -1.30154043      0.31255900     -0.83248385
N      -1.31153112      1.41874440     -1.44825586
O      -2.27936489     -0.65128187     -0.88936640
N      -0.45055736     -1.19591151      0.89837932
H       2.96159556      0.89950615      0.79553874
H       2.50863014     -0.79749588      0.73171855
H       1.85816395      0.23342920      1.99837044
H       1.04241644      1.42048521     -0.59784187
H      -2.13002825      1.53829838     -2.04171380
H      -2.99702447     -0.33985929     -1.45214073
H       0.36647324     -1.69781036      1.20768975
H      -1.18040162     -1.80956444      0.57557609
