12
b3lypvtz=-223854.42562709
N       1.25835986     -0.34849511      0.01752041
C       0.38659125     -1.43375786      0.27540010
C       0.77864017     -2.74236008      0.23562828
O       1.96878712     -3.32309400     -0.02918785
N      -0.32417426     -3.49064487      0.53587847
H      -0.35878407     -4.49400553      0.58601458
C      -1.35183918     -2.59979994      0.74802647
N      -0.95401778     -1.36482855      0.59874929
H       1.32040349      0.27492029      0.81446312
H       0.93788388      0.20652332     -0.76789434
H       2.58272986     -2.59726058     -0.20908533
H      -2.34608034     -2.92529710      1.00388681
