14
b3lypvtz=-203699.48539392
N       2.80216781     -0.01805613     -0.71685123
C       1.77762496     -0.01687426     -0.19225747
C       0.47413497     -0.00068240      0.45479757
C      -0.42115051      1.18326920      0.00371339
O      -1.73936688      0.72099209      0.21186827
C      -1.76593429     -0.62286265     -0.26344985
C      -0.41305373     -1.24460779      0.14102965
H       0.63590281      0.07072538      1.53069628
H      -0.24125964      1.41148375     -1.05396349
H      -0.27028660      2.08408490      0.59419079
H      -2.62453680     -1.11717673      0.18599750
H      -1.88526355     -0.63193143     -1.35319664
H      -0.50398925     -1.87107424      1.02561344
H       0.00993969     -1.85003368     -0.65748920
