18
b3lypvtz=-205226.09632804
C      -2.24842681     -0.62794976     -0.73855953
C      -1.14134673     -0.33172047      0.25102989
O      -1.35736844     -0.27283446      1.44158117
C       0.25466309     -0.10064284     -0.31764109
C       0.41007225      1.38710144     -0.68352021
C       1.33564817     -0.55929135      0.66979591
N       2.66807973     -0.45120352      0.06744486
H      -2.11476274     -1.64132298     -1.12802291
H      -3.21688760     -0.56020267     -0.24910732
H      -2.20995085      0.04731617     -1.59492999
H       0.34747411     -0.68691988     -1.23913968
H      -0.29579446      1.69294731     -1.45683845
H       1.42130522      1.56404903     -1.04466609
H       0.24466935      2.01166765      0.19601897
H       1.30069865      0.08449088      1.54875638
H       1.09288499     -1.57103706      1.01895719
H       2.82124614     -1.19916471     -0.59917299
H       3.38571594     -0.54382776      0.77518291
