13
b3lypvtz=-239660.73847175
C      -1.62519375      1.28287668     -0.55358177
C      -0.94990432      0.24457982     -0.03663933
N      -1.52842750     -0.83500284      0.62187139
C       0.50546049      0.14703479     -0.17604450
F       1.09080528      1.11600850     -0.92983465
N       1.20243930     -0.76031988      0.35922578
N       2.56764920     -0.72160011      0.24053379
H      -1.11354276      2.06231311     -1.09153175
H      -2.69876979      1.35472062     -0.45035818
H      -2.41075219     -0.63882579      1.06512681
H      -0.88977087     -1.35061602      1.20712520
H       2.94391513     -1.65182943      0.33476675
H       2.90609177     -0.24953944     -0.59055952
