14
b3lypvtz=-201290.55209463
C      -3.21783916      0.15170764      0.14275272
N      -2.16263266     -0.49545054     -0.14372971
C      -0.93501912      0.13305218      0.05908730
C       0.21178382     -0.48844184     -0.22947534
C       1.55147887      0.11381078     -0.04437842
N       1.85014454      1.35746876     -0.09651641
N       2.55602032     -0.81584629      0.15013076
H      -4.18528790     -0.31829731     -0.00551458
H      -3.20776442      1.17417048      0.53711348
H      -0.93495696      1.14384635      0.47232089
H       0.16035408     -1.50452346     -0.60317282
H       1.04324421      1.91463954     -0.35911839
H       3.43815377     -0.41858952      0.43386815
H       2.31164161     -1.67900478      0.60598238
