11
b3lypvtz=-168705.00645622
C      -2.26497326      1.18591550     -0.25243530
C      -1.24665289      0.65292403      0.08107442
C       0.00010697      0.00016973      0.51537111
C       1.18888761      0.75329918      0.08098182
C       2.15993753      1.36828287     -0.25240270
C       0.05792938     -1.40597957      0.08115701
C       0.10495788     -2.55441981     -0.25226006
H      -3.16624359      1.65764897     -0.55568628
H       0.00020515      0.00030195      1.61366027
H       3.01940546      1.91256202     -0.55549194
H       0.14658775     -3.57089687     -0.55530536
