12
b3lypvtz=-200535.47975894
C      -2.67012140     -0.07968490      0.21048774
N      -1.62022799     -0.67676923     -0.17990775
C      -0.37332730     -0.04268315     -0.10296124
N      -0.32049809      1.33110197     -0.05237708
C       0.72128851     -0.84603120     -0.03645460
C       2.02418245     -0.31594871      0.05129402
N       3.07720906      0.15940338      0.11341278
H      -3.62166538     -0.59442789      0.11689162
H      -2.67767759      0.91475762      0.66330604
H       0.59865101      1.74131917     -0.12502656
H      -1.02540291      1.82725097     -0.57386176
H       0.58088863     -1.91487203     -0.02721022
