21
b3lypvtz=-195912.20912556
C       1.25729884      1.40585705      0.48063115
C       1.13418524     -0.10918156      0.28216954
C       2.48998756     -0.70298335     -0.11981625
C       0.07024380     -0.50298943     -0.75911165
C      -1.40931246     -0.29067373     -0.42272625
C      -1.85832250     -0.93268186      0.88744836
O      -1.67621202      1.11896379     -0.42387296
H       0.31746208      1.85074883      0.79838767
H       2.02365071      1.63400146      1.22485781
H       1.54843619      1.89126881     -0.45486976
H       0.85715373     -0.55577423      1.24248696
H       2.81398031     -0.31148362     -1.08801265
H       3.26079924     -0.45193182      0.61133728
H       2.44556104     -1.79122416     -0.19963457
H       0.18592458     -1.56824582     -0.98228753
H       0.27368735      0.02883920     -1.69379069
H      -1.97988852     -0.75316670     -1.23950347
H      -1.64114435     -2.00276244      0.89450972
H      -1.36432537     -0.47297800      1.74322390
H      -2.93688166     -0.81585766      1.01941242
H      -2.61119279      1.25133024     -0.24040802
