15
b3lypvtz=-214541.33911414
C       0.84215153      2.00162660      0.10639210
N       1.46128090      0.71065315     -0.11160237
C       0.85065752     -0.38923975      0.01593562
C       1.60513853     -1.68683725     -0.10066884
N      -0.53019013     -0.57940259      0.29149293
C      -1.60761408      0.10568832     -0.22062438
O      -2.75421580     -0.20728094     -0.00101535
H      -0.03336591      1.97883337      0.76422584
H       0.54433847      2.45072065     -0.84485886
H       1.58866647      2.66411763      0.54528926
H       1.47932591     -2.28942641      0.80351106
H       2.66147460     -1.47889716     -0.23977726
H       1.23358316     -2.27887950     -0.93985219
H      -0.78912240     -1.43831080      0.75885989
H      -1.32893378      0.94733869     -0.86708343
