20
b3lypvtz=-182681.38222231
C       2.14046859     -1.03721227     -0.41856921
C       1.57600796      0.24794219      0.18567831
C       0.16772739      0.60593706     -0.30634947
C      -0.23464171      2.01950036      0.15406193
C      -0.90010326     -0.38277494      0.14971080
C      -2.05400533     -0.59164531     -0.80153021
N      -0.78350159     -0.94572594      1.28187303
H       3.15572047     -1.22174108     -0.06357491
H       2.17901729     -0.98096066     -1.50959571
H       1.53428085     -1.90096336     -0.14415379
H       2.24055629      1.08298082     -0.05409659
H       1.55044589      0.16101164      1.27284551
H       0.17327101      0.60242637     -1.40222708
H      -1.23525347      2.29267756     -0.18579754
H       0.46319181      2.76109333     -0.23782883
H      -0.22175331      2.07805510      1.24328176
H      -2.84102718     -1.19617292     -0.35082436
H      -1.70365812     -1.09367451     -1.70741963
H      -2.48176045      0.36235393     -1.11805162
H      -1.58234713     -1.54953539      1.47746362
