16
b3lypvtz=-204438.6935622
C      -2.06518761      0.07451387      0.90959565
C      -1.88260180      0.49755502     -0.52567713
C      -0.89785961     -0.44000356      0.12165559
N       0.40171336      0.06873469      0.44624044
C       1.38599086     -0.03747733     -0.60077729
C       2.79531492      0.01290845     -0.07727071
O       3.08870334     -0.04874376      1.08929880
H      -1.84957852      0.80798653      1.67318804
H      -2.86337930     -0.61426001      1.14773325
H      -1.54561652      1.50928256     -0.70169760
H      -2.55739352      0.10073172     -1.27124890
H      -0.95415034     -1.48132102     -0.20015224
H       0.76907503     -0.31705333      1.30745183
H       1.27080910      0.76084166     -1.34488332
H       1.32727349     -0.97933925     -1.18229943
H       3.57688711      0.08564377     -0.86028317
