19
b3lypvtz=-195146.67935077
C       1.57379331     -1.40905408      0.47530025
C       1.22178029     -0.25823848     -0.09120287
O       2.21099557      0.55131995     -0.60179056
C      -0.17872011      0.30406127     -0.20375263
C      -0.33584911      1.52150191      0.72910933
C      -1.28090353     -0.74218193      0.01720308
C      -2.68559909     -0.25433259     -0.34047686
H       0.83932039     -2.06426158      0.91268308
H       2.61245012     -1.70355424      0.51535581
H       1.81294010      1.27375096     -1.09639504
H      -0.28053865      0.66198817     -1.23961705
H      -1.27193879      2.04702081      0.54218762
H       0.47671853      2.23690197      0.59756317
H      -0.32370624      1.19927857      1.77175863
H      -1.26431389     -1.06413748      1.06205717
H      -1.04680872     -1.62401613     -0.58222780
H      -2.73398020      0.08770127     -1.37708150
H      -3.01255625      0.56797427      0.29685520
H      -3.41138073     -1.06079965     -0.22716603
