11
b3lypvtz=-236294.8137105
C      -0.65499604      1.34560492      0.04327798
C      -0.45160233      0.00657838      0.12240229
C       0.95562708     -0.09890259     -0.08524741
N       1.53693397      1.05233810     -0.27223045
O       0.51377779      1.99396500     -0.19216827
O       1.61822736     -1.27285280     -0.09843348
N      -1.30899914     -1.05447448      0.41751158
H      -1.53082988      1.96427226      0.13300780
H       2.55253237     -1.09222217     -0.26452744
H      -2.26346739     -0.90623463      0.12761459
H      -0.96720378     -1.93807197      0.06879280
