17
b3lypvtz=-191956.54164223
C       3.22850170     -0.20465807     -0.17414781
N       1.93305915     -0.22678804      0.47374372
C       0.92227072      0.13043512     -0.19332171
C      -0.43186864      0.14719996      0.39595056
C      -1.41000092      1.23699641      0.08212506
N      -1.55365483     -0.07099248     -0.52078315
C      -2.63631582     -0.90877455     -0.02495010
H       3.89565584      0.45993999      0.37920360
H       3.66962816     -1.20261370     -0.12896468
H       3.19273608      0.12103834     -1.22251820
H       0.98379061      0.44577134     -1.24511461
H      -0.49694354     -0.28679790      1.38856078
H      -1.13242100      2.04318817     -0.58657284
H      -2.09053734      1.51572240      0.88156624
H      -3.54847564     -0.67488239     -0.57574395
H      -2.83389496     -0.77129839      1.04795374
H      -2.38986356     -1.95645322     -0.19955067
