15
b3lypvtz=-216940.77596744
C      -1.91210058      0.48106186     -0.18459388
C      -1.34944830     -0.48527438      0.82541751
C      -0.44913452      0.52002891      0.16039381
C       0.57683789      0.06120015     -0.85928345
C       1.82238926     -0.49006985     -0.20690126
O       2.17908487     -1.63966565     -0.22485711
O       2.52105301      0.47638692      0.44061402
H      -2.19267483      0.09135068     -1.15407555
H      -2.54109747      1.28604617      0.16902037
H      -1.59715608     -0.34028973      1.86753521
H      -1.24777834     -1.52158549      0.53227931
H      -0.12269669      1.34970885      0.77359389
H       0.16665278     -0.72908296     -1.48592756
H       0.86124927      0.89850614     -1.50161970
H       3.28481972      0.04167836      0.84840440
