14
b3lypvtz=-224568.41334875
N      -2.86967022      0.67953075     -1.15381226
C      -1.68921263      1.12829968     -1.32881716
N      -0.49847774      0.64679222     -0.86430634
C      -0.38417654     -0.52987789     -0.04637972
C       1.03398402     -0.83457803      0.31953766
N       1.97816251     -0.09456724     -0.08431364
O       3.22640217     -0.54358266      0.36198094
H      -2.88512113     -0.16161314     -0.57852915
H      -1.56424786      2.02771868     -1.93158108
H       0.35689301      1.12213389     -1.09661006
H      -0.96306838     -0.42405257      0.88218588
H      -0.80388372     -1.40863984     -0.55664262
H       1.22624811     -1.70768284      0.94046795
H       3.83606841      0.10011898     -0.01328041
