15
b3lypvtz=-214465.71666105
C       2.75806900      0.36876925     -0.22984324
C       1.72788567     -0.58345037      0.39156888
C       0.35001509     -0.00346943      0.40384017
N      -0.58860159     -0.58085897     -0.22478001
O      -1.78750512      0.14321505     -0.08291667
N      -2.78570571     -0.52305550     -0.79015450
C      -3.88894634      0.09324781     -0.69469151
H       3.75740893     -0.06510775     -0.18365830
H       2.52265521      0.56828618     -1.27579648
H       2.78546357      1.32481755      0.29660738
H       1.70206280     -1.52936876     -0.14940637
H       2.02013991     -0.80576492      1.42306872
H       0.17037739      0.92534276      0.94732080
H      -4.01364651      1.01488670     -0.13166947
H      -4.72967230     -0.34748961     -1.21221042
