13
b3lypvtz=-213766.61773746
C      -1.56230476     -0.44805219     -0.49071626
C      -1.29511501      0.50877301      0.69588528
O       0.15358254      0.60348320      0.74166565
C       0.61044277     -0.19090900     -0.26463716
N      -0.22812062     -0.80628873     -0.99142685
C       2.07461987     -0.27214872     -0.43172877
N       2.93833764      0.32799505      0.27362396
H      -2.13802603      0.02104795     -1.29001131
H      -2.09609016     -1.35164027     -0.19268721
H      -1.63724165      0.12279692      1.65483993
H      -1.69312868      1.51141393      0.54881852
H       2.39167258     -0.91831277     -1.24729562
H       2.48137151      0.89184165      0.99366985
