11
b3lypvtz=-215385.22474192
C       2.34114992     -0.04813168     -0.15394047
C       1.14169309     -0.15306384     -0.12654308
C      -0.27583317     -0.22674859     -0.08911168
C      -1.01319469      0.90560148      0.02935111
O      -0.52487789      2.13853358      0.11744212
C      -0.96632666     -1.53005760     -0.17824401
O      -2.16759232     -1.67492767     -0.15232272
H       3.40032979      0.02140389     -0.17983865
H      -2.09301792      0.86320901      0.05987450
H       0.44539675      2.10231819      0.08337672
H      -0.28772691     -2.39813676     -0.27414168
