15
b3lypvtz=-193628.64023999
O       2.67256110      0.17128206      0.20224094
C       1.30951128      0.03575284      0.15298340
C       0.65278978     -1.08383485     -0.17543180
C      -0.85495983     -1.11444862     -0.11314317
C      -1.46867912      0.26168366     -0.40405288
C      -0.71454413      1.36970618      0.28286958
C       0.59374934      1.25658684      0.52151276
H       3.08008538     -0.67197137     -0.02316784
H       1.19162068     -1.99638293     -0.40574182
H      -1.17315416     -1.45136687      0.88363224
H      -1.25028430     -1.84713182     -0.81889840
H      -2.52059976      0.27374790     -0.11347348
H      -1.44873265      0.45438695     -1.48576657
H      -1.23829833      2.28556782      0.52774078
H       1.16893473      2.05652220      0.96879626
