19
b3lypvtz=-192744.49812243
C       3.08594164      0.12568307      0.61423270
C       2.11478559     -0.31052341     -0.48078256
N       0.81078825      0.29673425     -0.29947561
C      -0.19890894     -0.47082226     -0.22774116
N      -1.49294107     -0.03532799     -0.13330911
C      -2.53461407     -0.94798779      0.28435608
C      -1.76492387      1.38100383      0.01151470
H       4.08242524     -0.28402721      0.43620661
H       2.74495070     -0.21518328      1.59319826
H       3.15911052      1.21332228      0.64492031
H       2.51324997      0.00698528     -1.45018589
H       2.05756371     -1.41052770     -0.50881580
H      -0.11793729     -1.56485313     -0.26536045
H      -2.23523440     -1.97383691      0.07282443
H      -2.75324512     -0.86936761      1.35758263
H      -3.45833902     -0.74319804     -0.26160357
H      -0.98280827      1.94331062     -0.49048539
H      -2.73354026      1.61341806     -0.43434718
H      -1.78502130      1.68832392      1.06459100
