14
b3lypvtz=-203691.05083828
C      -1.44336992      1.62410933      0.00002009
C      -0.24487451      0.73235852      0.00001591
C       1.06798084      1.06326046     -0.00004375
O       1.84328038     -0.03327512     -0.00009310
N       1.01438787     -1.15738274      0.00008565
C      -0.21127733     -0.70052726     -0.00002868
C      -1.36633411     -1.64606848     -0.00000327
H      -1.15066914      2.67365805      0.00001768
H      -2.06947090      1.45470979      0.87893200
H      -2.06949487      1.45471333     -0.87887556
H       1.58453923      2.00898058     -0.00001451
H      -1.99518938     -1.49564088      0.87978339
H      -1.99518916     -1.49569095     -0.87979929
H      -1.00822500     -2.67339564      0.00002844
