17
b3lypvtz=-217686.6461026
C       1.92162901     -0.00000051     -0.75313364
C       1.05342789     -0.00000337      0.50688982
C       0.14813758      1.23592939      0.58731855
O      -0.89709477      1.16990595     -0.38228564
C      -1.65899586      0.00000430     -0.22478058
O      -0.89709926     -1.16989928     -0.38229362
C       0.14813284     -1.23593322      0.58731005
H       2.56393214     -0.88208116     -0.78419232
H       2.56393878      0.88207562     -0.78418349
H       1.30399308      0.00000630     -1.65031969
H       1.70091899     -0.00000773      1.39008943
H      -0.29144636      1.31663176      1.59157904
H       0.69933349      2.15288660      0.38143651
H      -2.13233811      0.00000177      0.77250168
H      -2.41529238      0.00000839     -1.00576798
H       0.69932531     -2.15289113      0.38142185
H      -0.29145138     -1.31664067      1.59157004
