14
b3lypvtz=-201307.07719894
C      -2.55685369     -0.41465444      0.01022386
C      -1.10047692     -0.08110228     -0.00032233
N      -0.69961896      1.18115708     -0.00239549
N       0.66065309      1.10710109     -0.00498393
H       1.20040213      1.94909982     -0.09299098
C       1.11752263     -0.16771552     -0.00143890
N       2.48279907     -0.45134449     -0.07267616
C      -0.00011840     -0.97606867      0.00451870
H      -2.83466151     -1.00675886     -0.86450264
H      -3.14507353      0.50139640      0.00744934
H      -2.82670853     -0.99530438      0.89512288
H       2.66886948     -1.44095581     -0.01318976
H       3.03722191      0.03945704      0.61597039
H      -0.02100175     -2.05216298      0.02632402
