17
b3lypvtz=-191993.07624781
C       1.69967245      0.52655883     -0.90532119
C       0.58017453      0.00944752     -0.00496565
C       1.14903765     -0.74050686      1.20595467
C      -0.41828732      1.12551458      0.43623674
N      -1.77304750      0.56241173      0.30750005
C      -1.63374418     -0.52025576     -0.34842592
N      -0.35686643     -0.85964221     -0.75970221
H       2.34279886     -0.28851365     -1.24481493
H       2.32636516      1.24120431     -0.36796369
H       1.28634034      1.02134459     -1.78373594
H       1.73618912     -1.60709308      0.89166671
H       0.34609035     -1.08579444      1.85894307
H       1.80375858     -0.08984235      1.78887246
H      -0.23749443      1.46030616      1.45909253
H      -0.33718464      2.00250027     -0.21345319
H      -2.46668627     -1.15667885     -0.62731631
H      -0.12938528     -1.83891580     -0.85071320
