19
b3lypvtz=-171819.67641158
C      -2.03365468      1.18588242      0.27366093
C      -1.59279758     -0.05522984     -0.46646319
C      -1.27297667     -1.33149824      0.27018407
C      -0.17171954     -0.56987652     -0.42682274
C       0.91600723      0.10474347      0.34552343
C       2.32356011     -0.42903141      0.28220895
C       1.98565243      0.88405669     -0.37507266
H      -1.79407399      2.09113117     -0.28896387
H      -3.11342413      1.17321225      0.43881492
H      -1.55697378      1.26910838      1.25070852
H      -2.09019927     -0.18863011     -1.42068936
H      -1.28824203     -1.29318092      1.35264263
H      -1.60006132     -2.27617379     -0.14301533
H       0.17758354     -1.00809445     -1.35602231
H       0.61749265      0.50221696      1.30734237
H       2.92243905     -0.41289226      1.18252887
H       2.50725284     -1.28214124     -0.35753327
H       1.94205275      0.91066122     -1.45595876
H       2.35510138      1.79460222      0.07648678
