16
b3lypvtz=-202042.28313689
C       2.55264809      1.11795788     -0.12378015
N       2.32661164     -0.25484972      0.31637816
C       1.18079817     -0.89731157     -0.31274747
C      -0.10379469     -0.45441416      0.32368833
N      -1.15684278     -0.22141289     -0.34838279
C      -2.30737843      0.14928960      0.37714213
N      -3.43301230      0.38527825     -0.14552016
H       3.44581610      1.51121947      0.36111108
H       2.67154622      1.22093302     -1.21252129
H       1.71238083      1.74655218      0.17616646
H       3.15756670     -0.80943745      0.16591737
H       1.10869273     -0.73968175     -1.39780625
H       1.26488550     -1.97692508     -0.14474597
H      -0.07249132     -0.35681360      1.41743175
H      -2.19912486      0.23511751      1.46424442
H      -3.36769860      0.26231331     -1.15876361
