12
b3lypvtz=-202932.64053498
C       1.77568719     -0.36034437     -0.68915424
C       0.47152961     -0.25250565     -0.43329622
N      -0.53782371     -0.80743215     -1.25238505
C      -1.65248904     -0.48706182     -0.66965342
C      -1.50627896      0.28851660      0.55723960
C      -0.17346624      0.43929540      0.71133617
O       0.45985984      1.08943914      1.70680665
H       2.53086999      0.07377414     -0.04549345
H       2.11584563     -0.89537351     -1.56415331
H      -2.60360171     -0.79037903     -1.09158860
H      -2.29300418      0.65614910      1.19425298
H       1.41287157      1.04612216      1.57608888
