14
b3lypvtz=-203656.06793812453
C       1.09005325      1.31492324      0.32655754
C      -0.28978140      1.21194081      0.59056777
C      -0.63991183     -0.10722984      0.30185669
N      -2.03080544     -0.58572628      0.26133151
H      -2.43482329     -0.62575008     -0.68375157
H      -2.60968040      0.04259364      0.81804882
H      -2.12006844     -1.52095678      0.66495063
C       0.46435531     -0.83665532     -0.19281714
C       1.53334982      0.07032618     -0.14416567
O       2.85403306     -0.18272038     -0.46363013
H       1.71215273      2.18037580      0.48858621
H      -0.94277354      1.99856514      0.94194575
H       0.49512837     -1.87417575     -0.49427041
H       2.91877178     -1.08551036     -0.78526400
