15
b3lypvtz=-214532.46230238
C      -1.93340916      0.40677043      0.79372242
C      -0.84022204      0.10842597     -0.15905666
N      -0.70624388      1.22259291      0.79892778
C       0.09360437     -1.06501976      0.03848492
C       1.54336100     -0.76980211     -0.34906151
O       2.14829829     -1.42606870     -1.17675536
N       2.09954444      0.26707249      0.33437824
H      -2.84436648      0.85178323      0.41310603
H      -2.06503661     -0.22186812      1.66551319
H      -1.01577704      0.37970313     -1.19473715
H      -0.87255536      2.11031072      0.33807653
H       0.07251958     -1.36517948      1.08903237
H      -0.23186744     -1.91236794     -0.56242820
H       1.52164110      0.85752388      0.91271791
H       3.03050926      0.55612335      0.08714613
