17
b3lypvtz=-215307.34838775
C       2.62609104      0.18661016     -0.07553985
N       1.23927072      0.60850330      0.03833083
C       0.25159119     -0.35878020      0.04220793
O       0.52597574     -1.55111476      0.07868816
N      -1.04554895      0.11122693      0.04706065
C      -2.13276240     -0.83515473     -0.12565457
C      -1.38471300      1.51931151      0.06816696
H       2.83837175     -0.56505317      0.68042494
H       3.26810114      1.05006872      0.09382684
H       2.85862818     -0.24756119     -1.05209928
H       1.01687590      1.50684443     -0.35264486
H      -2.65617866     -0.67000522     -1.07344804
H      -1.71922102     -1.83819464     -0.11800581
H      -2.85776454     -0.74042544      0.68723213
H      -2.39553119      1.63393615      0.45926189
H      -1.36223541      1.98408714     -0.92673222
H      -0.71669048      2.07058101      0.72989731
