19
b3lypvtz=-192746.08680699
C      -2.86994486     -0.19891280      0.42195325
C      -1.49181333      0.17332892     -0.07419985
N      -1.14114679      1.33954663     -0.43358134
C      -0.50432090     -0.97317422     -0.14292149
C       0.92198172     -0.62168990     -0.56416541
C       1.72458883      0.11808803      0.50406114
N       3.10631738      0.32005176      0.05558411
H      -3.54144666      0.65917240      0.41437572
H      -3.30370398     -0.98784916     -0.19747736
H      -2.81769936     -0.59210033      1.44029829
H      -1.91593464      1.99807032     -0.34836856
H      -0.50064857     -1.47793237      0.83072807
H      -0.92265715     -1.71111517     -0.83702299
H       1.44372600     -1.55205839     -0.81185723
H       0.90404573     -0.01456416     -1.46916538
H       1.27775019      1.09835560      0.66627184
H       1.65140535     -0.43457376      1.45458462
H       3.60481076     -0.56278965      0.03551476
H       3.60611827      0.91879125      0.70166880
