16
b3lypvtz=-181154.05996228
C      -0.28122028      1.58066491      0.01122624
C       1.00895913      1.24488176      0.12907301
N       1.60460224      0.00001283      0.00000193
C       1.00897996     -1.24486548     -0.12907467
C      -0.28119424     -1.58066919     -0.01122999
C      -1.44319021     -0.69587964      0.33477192
C      -1.44320400      0.69585641     -0.33476815
H      -0.50136074      2.62718097      0.17948229
H       1.73065487      2.02103946      0.35152274
H       2.60785827      0.00002106      0.00000457
H       1.73068826     -2.02101046     -0.35152808
H      -0.50131916     -2.62718747     -0.17949248
H      -2.36629243     -1.21247159      0.05937696
H      -1.49642380     -0.54959630      1.41814714
H      -2.36631273      1.21243329     -0.05936645
H      -1.49644314      0.54957244     -1.41814300
