14
b3lypvtz=-203684.81456755
C      -1.80329748      0.59957637     -0.15308745
C      -0.74736655     -0.32297175      0.40077332
C       0.35815182     -0.84395497     -0.53995839
C       1.33243741     -0.22047543      0.48458211
O       0.24574386      0.38313764      1.21248183
C       2.29973913      0.75487668     -0.01807816
N       3.06580405      1.50563759     -0.43431809
H      -1.35382695      1.38969529     -0.75523954
H      -2.36569069      1.06214050      0.65910017
H      -2.50478686      0.03885896     -0.77506541
H      -1.20395257     -1.11667542      0.99922454
H       0.37597423     -0.35590815     -1.51128964
H       0.43460489     -1.92043412     -0.66531493
H       1.86646574     -0.95350319      1.09618964
