12
b3lypvtz=-223844.35535505
C      -2.14461929      0.21791838     -0.57286168
C      -0.77247811     -0.06925383     -0.08635130
N       0.34399828      0.45409149     -0.48693057
C       1.26846119     -0.18586036      0.30988919
N       2.60911621      0.04299061      0.16335999
N       0.76855592     -1.04626474      1.16094300
O      -0.62387456     -0.97226455      0.88444385
H      -2.09945056      0.96826978     -1.35684677
H      -2.77036268      0.58216807      0.24290481
H      -2.60711708     -0.68849345     -0.96541987
H       3.18753818     -0.24374488      0.93570231
H       2.84023250      0.94044347     -0.22873297
