13
b3lypvtz=-192822.55600255
C      -3.68666395     -0.35000839     -0.00000840
C      -2.55841858      0.06907610     -0.00000194
C      -1.24862273      0.60243585     -0.00000326
C      -0.15536969     -0.16758358      0.00000290
O       1.08452993      0.38001620      0.00000005
C       2.17056498     -0.45459918      0.00000302
C       3.40697597      0.01704436      0.00000042
H      -4.67882412     -0.72591219     -0.00004282
H      -1.13240016      1.68006364     -0.00000925
H      -0.20206929     -1.25076905      0.00001154
H       1.93524665     -1.51319487      0.00000723
H       3.60818498      1.07850900     -0.00000323
H       4.23860201     -0.66989487      0.00000175
