15
b3lypvtz=-191207.69632151
C      -2.62449341      0.20848429      0.30291809
N      -1.72567690     -0.37496716     -0.36996790
C      -0.38147231     -0.09193524     -0.14457078
C       0.24073758      1.08953601     -0.15578751
C       1.72289591      0.90526442     -0.02425396
N       1.85134195     -0.51702532      0.34564225
C       0.61242330     -1.21891097     -0.01859813
H      -3.66892948      0.01250847      0.07408625
H      -2.40217652      0.90576607      1.11665979
H      -0.23178318      2.04725378     -0.31772613
H       2.15762949      1.54920484      0.74842797
H       2.23405457      1.15766618     -0.96736875
H       2.66748136     -0.94585702     -0.06432080
H       0.66590238     -1.77275394     -0.96824592
H       0.31999124     -1.93742840      0.75389654
