17
b3lypvtz=-217691.88029089
C      -3.02202804      0.18414061      0.01725236
C      -1.60354947     -0.24493139     -0.19166276
C      -0.53379980      0.41873285      0.23218959
C       0.90574804     -0.00684620      0.03361408
C       1.64932941      0.89320606     -0.94325885
O       1.01140779     -1.31932020     -0.48789781
O       1.59345886      0.10011269      1.27988860
H      -3.52912518      0.32951602     -0.94056985
H      -3.08546045      1.11483518      0.58132857
H      -3.58922105     -0.58085531      0.55462083
H      -1.45288863     -1.16299579     -0.75130251
H      -0.65250193      1.35820264      0.76481777
H       2.69927865      0.60314646     -0.95822252
H       1.23132185      0.78415177     -1.94200493
H       1.57333490      1.93321615     -0.63080891
H       0.60470131     -1.92839374      0.13820434
H       0.99685274     -0.17358780      1.98484201
