16
b3lypvtz=-181078.59791316
C       0.68430060     -0.49489517     -0.13380012
C       0.33519373      0.75367219     -0.91156188
C       1.14311411      2.04027016     -0.76925989
C       2.24831292      1.46145450     -1.70317391
N       0.94041273      0.87039111     -2.31434244
C       0.76841362      2.41353198     -2.23217071
C       2.21327207      2.64696666     -2.66534015
H       0.24469862     -1.37329850     -0.61018164
H       0.29224891     -0.43412746      0.88384716
H       1.76198275     -0.65080290     -0.06918325
H      -0.74996404      0.89223024     -0.94951988
H       1.27089576      2.71419468      0.08329147
H       3.08341617      0.81591007     -1.44057902
H      -0.15364938      2.87843859     -2.57893914
H       2.68698875      3.56903211     -2.32830413
H       2.44566269      2.42723175     -3.70748246
