13
b3lypvtz=-216186.59408025
C       3.29845116      0.30579713      0.00000893
C       2.19347823     -0.44437970      0.00002018
C       0.85534361      0.10703004      0.00000228
C      -0.26115119     -0.63586132      0.00001434
C      -1.62665392     -0.09519289      0.00000614
O      -2.62491488     -0.77749167      0.00003392
O      -1.68197808      1.26332892      0.00000502
H       3.24524886      1.38771961     -0.00001822
H       4.28487610     -0.13668228      0.00002653
H       2.27864835     -1.52634838      0.00004406
H       0.76780132      1.18778825     -0.00002174
H      -0.21852345     -1.71717142      0.00003503
H      -2.62190811      1.49356172      0.00001552
