15
b3lypvtz=-191210.66246466
C      -0.32822423     -1.31212782      0.03173731
C       1.08015624     -0.78477659     -0.11386447
C       1.03505245      0.65159688     -0.49272846
N       1.40414370      0.25749657      0.88018276
C      -0.40569274      1.09617811     -0.59699514
C      -1.21367085     -0.07310568     -0.02879487
N      -2.41992747     -0.08492850      0.34766960
H      -0.49850347     -1.86051568      0.95753594
H      -0.57755269     -1.97775346     -0.80035607
H       1.87118402     -1.43414640     -0.46458983
H       1.78826324      1.09227437     -1.13236778
H       2.40943474      0.32161429      1.00102413
H      -0.68283864      1.25671181     -1.64380089
H      -0.61125686      2.01742847     -0.04963649
H      -2.85056744      0.83405362      0.23442594
