16
b3lypvtz=-181102.57284132
C      -1.32885961     -0.97722607     -0.32373982
C      -0.67881355      0.30569011     -0.82657491
C       0.71348007     -0.37583534     -0.81697751
C       1.25694319      0.93300535     -0.26962191
N      -0.09988689      1.12946436      0.37743728
C      -0.04339578      0.01766730      1.37939933
C       0.03160117     -1.15992685      0.39461846
H      -2.23570058     -0.93513669      0.28177689
H      -1.46340513     -1.67256080     -1.15329937
H      -1.06547683      0.93998307     -1.61821626
H       1.12717705     -0.95480450     -1.64029225
H       1.40626747      1.67937172     -1.05026217
H       2.10173642      0.94875057      0.42150925
H       0.82360980      0.13934067      2.02739700
H      -0.94134729     -0.00063230      1.99652963
H       0.38277049     -2.13005060      0.73571635
