15
b3lypvtz=-191222.89811502
C      -2.99638788     -0.64248994     -0.32083684
N      -1.88426776     -0.47636917      0.24752107
C      -1.26408429      0.83705085      0.18891269
C       0.16949631      0.74278767     -0.33760620
C       1.06063667     -0.13889083      0.55429454
C       2.42045645     -0.25863165      0.04047856
N       3.48823124     -0.34067856     -0.38037054
H      -3.47285511     -1.61969863     -0.28968046
H      -3.52647995      0.15586970     -0.85560290
H      -1.83885676      1.53998392     -0.42982609
H      -1.24535184      1.23446649      1.20878352
H       0.59133713      1.74735684     -0.39983280
H       0.15914219      0.33756675     -1.35101460
H       1.11063980      0.27377972      1.56525142
H       0.62434580     -1.13462416      0.64116062
