12
b3lypvtz=-223806.20902904
N       2.77521653     -0.12801141     -0.99718046
N       1.49344733     -0.34329151     -0.73945540
N       0.77438591      0.67604701     -0.89341303
C      -0.54322424      0.53786413     -0.46547065
C      -0.98327536     -0.20459605      0.56443931
C      -2.40094919     -0.22165519      0.94222333
O      -3.27685506      0.43090795      0.41363914
H       3.31497731     -0.95775952     -1.17045684
H       3.02771320      0.74444774     -1.45044291
H      -1.23996940      1.17255218     -0.99908228
H      -0.29517067     -0.80514531      1.14518517
H      -2.64629635     -0.90136003      1.78271463
