13
b3lypvtz=-237046.29331599
C      -1.09416455     -0.55108313      1.15454777
N      -0.05252297     -0.66249176      0.14089694
C       0.39453430      0.32508176     -0.67306592
C       0.10019363      1.76637081     -0.46560889
O      -0.56977267      2.22552311      0.42874378
N       1.15993786      0.14926303     -1.70728957
O       1.42716965     -1.21974407     -1.88351540
H      -1.14767649     -1.50517396      1.67639283
H      -0.86067942      0.22845236      1.87334663
H      -2.07648462     -0.33518050      0.72651366
H       0.16526780     -1.58725812     -0.19093158
H       0.57102753      2.39668307     -1.23825944
H       1.98326994     -1.23034259     -2.66827080
