11
b3lypvtz=-213014.56603785
C      -1.45178936     -0.81678255      0.67961432
C      -0.52371575      0.12283887      0.47212653
C      -0.89518201      1.49755255      0.31754389
N      -1.17552353      2.60797227      0.19124724
C       0.93403188     -0.17228661      0.38655199
N       1.87650777      0.64738410      0.19305531
O       1.19466045     -1.48928942      0.54409303
H      -2.50072901     -0.56466440      0.73574132
H      -1.16272136     -1.85019729      0.79502336
H       1.54937143      1.60345932      0.09039289
H       2.15508950     -1.58598688      0.47432838
