18
b3lypvtz=-181884.86454251
C      -2.78868796      0.00001895     -0.40523620
C      -1.50604830      0.00000446     -0.09324660
C      -0.46726284      1.06528244      0.19620529
N       0.39763506     -0.00002890      0.75386342
C       1.83423371     -0.00002638      0.54042427
C       2.33441191      0.00003704     -0.91145106
C      -0.46726966     -1.06529893      0.19613678
H      -3.33855295      0.92345213     -0.53805840
H      -3.33855953     -0.92340171     -0.53811816
H      -0.73306936      1.85135466      0.90801504
H      -0.08473055      1.53805068     -0.71916120
H       2.23884490     -0.87371742      1.05948100
H       2.23885443      0.87361395      1.05955908
H       1.99980404     -0.88259699     -1.45862252
H       3.42601041      0.00003124     -0.92663065
H       1.99981480      0.88272630     -1.45854008
H      -0.73308151     -1.85141456      0.90789659
H      -0.08474062     -1.53801196     -0.71925960
