16
b3lypvtz=-227743.49674105
C       2.88218193     -0.11476636     -0.18903791
N       1.64880576     -0.58403067      0.44402614
C       0.45511744      0.02322112      0.08829385
O       0.50714274      1.38040306      0.17395343
C      -0.66980462     -0.61176834     -0.27582031
O      -1.80840542      0.14742392     -0.51958002
C      -2.91082941     -0.17509757      0.32265864
H       2.90470282     -0.28537669     -1.27290044
H       2.99848782      0.95025492     -0.00624214
H       3.72577450     -0.63237538      0.26532005
H       1.56385026     -1.58928890      0.43808328
H      -0.35209090      1.70000479     -0.13640527
H      -0.73879475     -1.68290013     -0.41493782
H      -3.73699864      0.47149307      0.03067437
H      -2.66721959     -0.01055393      1.37651621
H      -3.21076594     -1.21959692      0.18884196
