14
b3lypvtz=-222193.87253222
N      -2.44848528     -0.78227856      0.63419124
C      -2.15016902      0.25141907     -0.03235310
N      -0.89892597      0.64728401     -0.50567262
N       0.08392709     -0.38126455     -0.60426780
C       1.20684742     -0.04932635     -0.05742607
N       2.20624539     -0.99951943      0.02208591
N       1.52457578      1.18380391      0.45962475
H      -1.62686905     -1.38068539      0.73321505
H      -2.91686782      0.99453705     -0.25575934
H      -0.96080643      1.17996474     -1.36588768
H       1.98119854     -1.83377113     -0.49890930
H       3.13784173     -0.65887249     -0.16040507
H       0.70834182      1.76310494      0.59924742
H       2.16466579      1.17311916      1.23811561
