19
b3lypvtz=-195139.12064147
C      -0.92620223      1.31440065     -0.39900460
C      -0.38711314     -0.08659375     -0.12059338
C      -1.51734067     -1.05304826      0.20800071
C       0.63304596     -0.54894853     -1.20794312
C       1.79397663     -0.06524006     -0.30138578
C       0.82006957     -0.07246580      0.88259004
O       0.98033481      1.01122955      1.77827069
H      -0.12936924      2.02031504     -0.63278403
H      -1.46371781      1.70820385      0.46574269
H      -1.61803598      1.29043097     -1.24423176
H      -2.22155085     -1.13537003     -0.62382946
H      -1.13601718     -2.05442319      0.41966369
H      -2.08289015     -0.71747954      1.08218744
H       0.54335581     -0.08202299     -2.18833384
H       0.63159002     -1.63164915     -1.33751122
H       2.68284944     -0.68932763     -0.22423191
H       2.09966521      0.95416418     -0.53437787
H       0.86439212     -1.02509511      1.42269091
H       0.43275768      0.86271979      2.55498078
