16
b3lypvtz=-204424.01064999
C       2.79485481      0.57403780     -0.48274442
O       2.35656484     -0.77235913     -0.38503244
C       1.02090487     -0.98420948     -0.29368302
C       0.03850893     -0.08227573     -0.27130670
C      -1.38087824     -0.47101813     -0.16049147
C      -2.37748340      0.34459799      0.58390704
N      -2.36133803      0.36834558     -0.88427899
H       2.49938832      1.14942169      0.39931206
H       2.38848060      1.05630576     -1.37619073
H       3.87919389      0.53861893     -0.54820511
H       0.81832106     -2.04692813     -0.23400226
H       0.23837666      0.97844737     -0.34403626
H      -1.56063957     -1.54179563     -0.15822640
H      -3.18065996     -0.17407592      1.09494098
H      -2.06434057      1.26813198      1.05591723
H      -3.10925421     -0.20524494     -1.25875480
