20
b3lypvtz=-205974.66358676
C       2.79735153     -0.30396068      0.19225688
N       1.47644497      0.08979721     -0.28855165
C       0.41326846     -0.84340959      0.10225557
C      -0.98051556     -0.36651258     -0.32422264
C      -2.02873053     -1.42981463      0.01502463
C      -1.35130661      0.97690436      0.31933763
O      -0.53360101      2.05713904     -0.09224805
H       3.08304380     -1.32543366     -0.09871085
H       2.81836633     -0.24989621      1.28194176
H       3.54830894      0.38667254     -0.19105985
H       1.49471317      0.16381540     -1.29983562
H       0.44028360     -0.93108883      1.19365981
H       0.59567632     -1.85482631     -0.29473588
H      -0.97464882     -0.21619808     -1.41041373
H      -2.08748209     -1.59360431      1.09420352
H      -1.79192415     -2.38734530     -0.45191010
H      -3.01934593     -1.12755025     -0.32774567
H      -2.37593543      1.23932036      0.04624088
H      -1.33064460      0.85971820      1.41453111
H       0.38244262      1.73596131     -0.03463076
