15
b3lypvtz=-216922.57278357
O       2.98283871     -0.67708055      0.33059331
C       1.83309801     -0.35806094      0.23215442
C       1.04644513      0.46071880     -0.79281871
C      -0.09538957      0.57436263      0.26482903
C      -1.51101547      0.29001939     -0.19385902
O      -1.53829331     -0.98383020     -0.83458695
C       0.61316449     -0.50339642      1.14342498
H       0.75680878     -0.15595846     -1.64563498
H       1.52026333      1.37487395     -1.14894514
H      -0.07937952      1.54910508      0.75375105
H      -1.83728586      1.07741829     -0.88454504
H      -2.18570353      0.30252075      0.67106943
H      -2.43408394     -1.16843759     -1.12798268
H       0.77084085     -0.29308020      2.20076256
H       0.15779191     -1.48907455      1.03168774
