14
b3lypvtz=-201262.52272108
C      -3.00428134     -0.31764210     -0.00003206
N      -1.88882720      0.29381220     -0.00001761
C      -0.73007183     -0.46780711      0.00003287
C       0.50172757      0.08221078      0.00003943
C       0.79879145      1.54440610      0.00000235
N       1.53945808     -0.88024355     -0.00000033
N       2.69037025     -0.39530445     -0.00000222
H      -3.92497784      0.25775219     -0.00003485
H      -3.08896861     -1.41000565     -0.00002357
H      -0.80470968     -1.55518024      0.00003948
H       1.39745146      1.81082904     -0.87281947
H       1.39750661      1.81082224      0.87278819
H      -0.12579406      2.11393172      0.00003239
H       3.33967314     -1.19254216      0.00008238
