15
b3lypvtz=-216893.46680456
C      -1.76647486      0.30765430      0.64722993
C      -0.27328370      0.04827728      0.76023226
C       0.60851593      0.74412639     -0.35451048
C       1.02094535     -0.64988700     -0.84127487
C       0.21419661     -1.29333851      0.20499257
O       1.64885181     -1.28752490      0.28599214
O       1.63640233      1.61760440      0.03126706
H      -1.99491191      1.35061227      0.87267077
H      -2.13381086      0.09649962     -0.36006177
H      -2.33142801     -0.31628784      1.34273069
H       0.08504989      0.24249204      1.77255248
H      -0.01397431      1.27748009     -1.07288795
H       1.32037319     -0.98527283     -1.82485709
H      -0.27656103     -2.25694888      0.20727381
H       2.25610959      1.10451356      0.56455483
