18
b3lypvtz=-202807.23345061
C       0.43607131     -0.06621252     -0.80843676
C       1.59785049     -0.65601356     -0.00980589
N       2.14888476      0.32113233      0.93651119
C      -0.75319737      0.45141608      0.02290487
C      -1.35422923     -0.65542798      0.87278574
N      -2.45572952     -1.24614785      0.68050341
N      -1.77022490      0.98407861     -0.88838892
H       0.06655827     -0.81734190     -1.51090375
H       0.81360223      0.76779777     -1.41227695
H       2.33936719     -1.04061440     -0.72327359
H       1.25225664     -1.51613924      0.56594685
H       2.62298811      1.06676433      0.43882838
H       2.84161275     -0.11272730      1.53437311
H      -0.36165691      1.20265486      0.71936522
H      -0.75761722     -0.94987200      1.73789900
H      -2.89264944     -0.86200355     -0.16394949
H      -1.34431933      1.55977048     -1.60366346
H      -2.42956783      1.56888583     -0.38841896
