13
b3lypvtz=-211340.61124197
N      -2.88036119     -0.39803398     -0.10028454
C      -1.67708461     -0.76130887      0.08092099
C      -0.46420592      0.08059291      0.04724350
N      -0.62253626      1.43814596     -0.02783044
C       0.74999040     -0.53465018      0.02323386
N       1.89855944      0.23483666      0.01440241
N       2.96765219     -0.41775177     -0.06229854
H      -2.94607520      0.59703567     -0.32412773
H      -1.48956663     -1.81466758      0.28629021
H      -1.40870866      1.83593661      0.46083391
H       0.23358294      1.96683926      0.04766317
H       0.83644051     -1.61536553     -0.00092665
H       3.73163899      0.26883081     -0.03981416
