17
b3lypvtz=-215297.88717641
C      -2.33350987     -0.81756430     -0.31443494
N      -1.15565488      0.02963184     -0.25138729
C      -1.36274129      1.18419237      0.60956352
C       0.02622147     -0.72304441      0.08968314
C       1.34135500      0.02178288     -0.17292856
N       2.42982896     -0.59183983      0.37741028
O       1.43075182      1.04402221     -0.81948429
H      -3.18750068     -0.22897325     -0.65092134
H      -2.17602250     -1.62460011     -1.03153154
H      -2.59840998     -1.27063562      0.65812535
H      -1.53704781      0.90080685      1.66348221
H      -0.49901255      1.84261861      0.55809146
H      -2.23348970      1.74136696      0.26320031
H       0.02385304     -1.06649833      1.14371180
H       0.05296401     -1.62656374     -0.52624859
H       2.35824913     -1.43472131      0.91754092
H       3.33865283     -0.19799581      0.20568956
