20
b3lypvtz=-210990.23011363
C       3.68267251     -0.00615457     -0.18075033
C       2.31257287     -0.51550189      0.26498976
C       1.16162268      0.40337140     -0.14841263
C      -0.21302679     -0.10428004      0.28784359
C      -1.35836543      0.82118855     -0.12591068
C      -2.72814030      0.31243426      0.26965834
F      -3.01120704     -0.88854967     -0.39179196
H       3.73255889      0.09205580     -1.26753991
H       3.89839245      0.97500456      0.24827636
H       4.48009819     -0.68439755      0.12722820
H       2.14177185     -1.51355560     -0.15004837
H       2.30443200     -0.63535832      1.35292327
H       1.17221805      0.52563403     -1.23701566
H       1.33057831      1.40243028      0.26907735
H      -0.38737865     -1.09678221     -0.13501581
H      -0.22614610     -0.22785648      1.37636961
H      -1.34406369      0.97570930     -1.20874650
H      -1.22750289      1.80822012      0.33108183
H      -2.78762437      0.11005535      1.34235958
H      -3.51245153      1.02193371     -0.00193606
