17
b3lypvtz=-191963.20701648
C      -0.96477536      0.04724940      1.40118092
C      -0.42606007     -0.17034466     -0.00139239
C      -1.36170968     -0.01751720     -1.14825771
N      -0.89682644     -1.35178533     -0.73078126
C       1.02695843      0.16810618     -0.20006571
C       1.91557675     -0.72615239     -0.63937305
N       1.33299596      1.51482983      0.03816453
H      -0.87538578      1.08551836      1.72784037
H      -2.02416970     -0.21091850      1.44775697
H      -0.42667458     -0.57554718      2.11893113
H      -2.38628411      0.26837569     -0.93701213
H      -0.97888195      0.31416753     -2.10456792
H      -1.61706371     -1.82266971     -0.19281557
H       2.95621958     -0.46315078     -0.78128084
H       1.59471009     -1.72024560     -0.90275409
H       2.31965067      1.70565586      0.12451926
H       0.81171988      1.95442848      0.77990752
