11
b3lypvtz=-189685.65224446
C      -1.23159868      1.97546506     -0.59801547
C      -0.92307811      0.83315089     -0.37766487
C      -0.49775013     -0.49327660     -0.10086322
C       0.77608856     -0.74975777      0.32347590
N       1.72392638      0.18266861      0.51953420
C      -1.40650942     -1.57584313     -0.26569132
N      -2.14141692     -2.45637174     -0.39811763
H      -1.53561640      2.97176932     -0.80189549
H       1.06948584     -1.77096304      0.52499980
H       2.64333848     -0.07085492      0.82600582
H       1.52323042      1.15411332      0.34843228
