19
b3lypvtz=-192722.09962357
C       2.62483807     -0.97095608     -0.09629664
N       2.06324624      0.37387959     -0.06392780
C       0.73018569      0.44452471      0.46682769
C      -0.22326984      1.48225107     -0.03374196
C      -0.50331734      0.01755567     -0.30487132
C      -1.66562058     -0.67280933      0.37774697
N      -2.99581461     -0.42924084     -0.19038468
H       2.02408665     -1.69672834     -0.66430692
H       2.71998983     -1.34854160      0.92391477
H       3.62519744     -0.93681026     -0.52854161
H       2.10178287      0.79840048     -0.98134794
H       0.70260661      0.24814675      1.53428457
H      -0.84169932      2.00108821      0.68802846
H       0.09752909      2.10309373     -0.86090187
H      -0.31911503     -0.30436521     -1.32567671
H      -1.69306635     -0.36905177      1.42848535
H      -1.50157966     -1.75378565      0.37872819
H      -3.17885307      0.56785509     -0.22625531
H      -3.03026868     -0.75725824     -1.14927024
