14
b3lypvtz=-226991.1209328
C      -2.35481557     -0.61286033      0.19893039
C      -1.59075291      0.40489923     -0.20949725
C      -0.16344020      0.59382182     -0.01745685
O       0.19442488      1.92808073      0.08529527
C       0.78455546     -0.36264421     -0.01343877
N       0.63274411     -1.75259883     -0.04088279
O       2.10467766      0.04133591      0.01341235
H      -3.40648114     -0.64663245     -0.04934252
H      -1.98540672     -1.41300032      0.82739516
H      -2.06227023      1.22619437     -0.74195521
H       1.15811160      1.97057455      0.08741980
H      -0.33258354     -2.03745002     -0.13101092
H       1.18244016     -2.16777182     -0.78732229
H       2.58357744     -0.53396764      0.62335064
