13
b3lypvtz=-213765.47054346
C       0.86104146     -1.74190160     -0.16938696
C       0.92412986     -0.43557445      0.05676313
O       2.09657497      0.25012637      0.07883237
C      -0.26680855      0.45844664      0.39249683
N      -0.09726822      1.75043018     -0.28808698
C      -1.56473495     -0.18004073      0.12976958
N      -2.60357143     -0.62439476     -0.08694501
H      -0.08325478     -2.26170144     -0.15116171
H       1.76123552     -2.30568491     -0.36378393
H       1.86997415      1.19032423     -0.02460602
H      -0.22071836      0.66641914      1.46651777
H      -0.69491586      2.45955810      0.11659848
H      -0.32718979      1.67335823     -1.27262753
