18
b3lypvtz=-205229.26385154
C      -2.49026948     -0.58381342      0.57463962
C      -1.22244113     -0.04518111     -0.01180594
O      -1.49834670      0.90124027     -0.96387360
N      -0.08382053     -0.44736172      0.36179908
C       1.15534660      0.07530727     -0.19732195
C       2.09240997     -1.09860549     -0.48678862
C       1.77971593      1.06332461      0.79340951
H      -3.07065320      0.22444484      1.02327824
H      -2.25608613     -1.33031318      1.32705552
H      -3.10711858     -1.02875275     -0.20831436
H      -0.67265809      1.23464764     -1.33505440
H       1.00848793      0.60644121     -1.15433604
H       3.04125888     -0.74723962     -0.89639759
H       2.28971272     -1.65126760      0.43264142
H       1.64118734     -1.78658335     -1.20223840
H       1.12584204      1.92070266      0.95998065
H       2.73934158      1.42943584      0.42407005
H       1.94042083      0.57179990      1.75379582
