15
b3lypvtz=-214518.7015781
C       2.25764392      0.69875902     -0.27476354
C       1.23056606     -0.12671701     -0.08116697
N       1.06067363     -1.39833259     -0.62017254
O       0.27879412      0.19926167      0.86999099
C      -1.04608672      0.27010658      0.52063689
C      -1.50319450      0.42983097     -0.72801646
N      -1.80675741      0.22955495      1.67441182
H       2.32539169      1.61651004      0.28548036
H       3.05357035      0.44255847     -0.95771467
H       0.09971936     -1.60089465     -0.86213664
H       1.67871626     -1.58592669     -1.39488247
H      -2.56490141      0.45745663     -0.91754226
H      -0.82954768      0.61886812     -1.54771289
H      -2.79644797      0.12202545      1.52685086
H      -1.43813970     -0.37306100      2.39442653
