16
b3lypvtz=-258678.49560085
N      -2.79391377     -0.78578411      0.21281820
C      -2.26814004      0.47750693     -0.31574554
C      -0.85050675      0.73998629      0.19306621
C       0.15466940     -0.31120244     -0.27864149
C       1.52278135     -0.13030867      0.32233234
F       2.37548733     -1.10328288     -0.13025236
F       2.06489637      1.07571975     -0.05347081
H      -3.65166449     -1.04408654     -0.25875205
H      -3.02044993     -0.69077945      1.19641052
H      -2.24876879      0.39822113     -1.40565893
H      -2.89512925      1.34645537     -0.07498793
H      -0.53197796      1.73147447     -0.13460697
H      -0.86895562      0.76909009      1.28874253
H       0.26548774     -0.27713854     -1.36558372
H      -0.20346407     -1.30714130     -0.01626598
H       1.53692047     -0.16301111      1.41486598
