14
b3lypvtz=-227007.91097162
C      -3.11318462     -0.33919842     -0.00003028
C      -1.94166143      0.27282221     -0.00001336
O      -0.77116049     -0.46464294      0.00003749
C       0.42047143      0.20248967      0.00003609
O       0.52472605      1.39855244     -0.00001744
C       1.57368309     -0.78959564     -0.00000166
N       2.89971850     -0.20955432     -0.00005522
H      -4.02007112      0.24597040     -0.00006261
H      -3.19281493     -1.41706150     -0.00001283
H      -1.79634383      1.34279031     -0.00004090
H       1.44933473     -1.43979492     -0.86952882
H       1.44941373     -1.43981803      0.86951821
H       3.01865991      0.38988402      0.80818599
H       3.01854598      0.38998371     -0.80823966
