14
b3lypvtz=-203691.22056705
C       2.04326707     -0.95007168     -0.00025673
C       1.13210351      0.02495616      0.00004546
C       1.50813657      1.48415123      0.00019213
C      -0.31250984     -0.37817183      0.00014533
O      -0.66791167     -1.53988385      0.00022906
C      -1.38851535      0.70208031     -0.00012891
N      -2.62169731      0.42474614     -0.00030429
H       3.10344811     -0.73348281     -0.00038007
H       1.73620078     -1.98663922     -0.00039011
H       2.59120922      1.59580925      0.00028440
H       1.11959332      2.00414418      0.87877572
H       1.11973600      2.00425197     -0.87839338
H      -1.08741937      1.74662776     -0.00029144
H      -2.72701604     -0.59741260     -0.00014618
