18
b3lypvtz=-181909.01644089
C      -2.32484013     -0.07064025     -0.09219999
N      -0.89021870     -0.03411231     -0.29974074
C      -0.32130822      1.24858913      0.09306115
C       1.17842065      1.25002917      0.04741705
C       1.89585327      0.13966651     -0.07662565
C       1.25335240     -1.21621511     -0.14326877
C      -0.19878139     -1.15405619      0.32728274
H      -2.79741831      0.75204582     -0.63178098
H      -2.73236775     -1.00572139     -0.47877996
H      -2.61142405      0.01458376      0.97114956
H      -0.65026934      1.54586460      1.10967366
H      -0.70873636      2.01831635     -0.58212273
H       1.66351318      2.21655026      0.12103299
H       2.97757195      0.19401002     -0.12750933
H       1.29535204     -1.59852332     -1.16855392
H       1.80965373     -1.92759111      0.47423333
H      -0.22455489     -1.07882349      1.43013473
H      -0.72254309     -2.07323145      0.05912986
