14
b3lypvtz=-180380.55400242
C      -2.35646491      0.05998612     -0.10044851
C      -0.90798918     -0.41449076     -0.18312683
C       0.07774743      0.65209229      0.33499100
C       1.46636482      0.23404321      0.26898518
C       2.61370808     -0.13150108      0.20574856
C       3.91466731     -0.54252341      0.13529523
N       5.01616965     -0.89068605      0.07552012
H      -3.03757821     -0.70607645     -0.47175422
H      -2.64199429      0.28730037      0.92871932
H      -2.51402690      0.96130410     -0.69641175
H      -0.77682764     -1.32855466      0.39870825
H      -0.65018477     -0.66174252     -1.21453066
H      -0.03938444      1.57469596     -0.24228808
H      -0.16420695      0.90615287      1.37185291
