9
b3lypvtz=-261408.71869556
C      -1.30189462     -0.03683645     -0.06740501
C       0.18509655      0.01088455     -0.05118766
N       0.98044646     -0.79527837      0.74641137
N       2.17053842     -0.50200158      0.52972977
O       2.18167095      0.52690735     -0.44384445
N       0.90941242      0.81076457     -0.77214896
F      -1.80334902      0.53820675      1.09208567
H      -1.64488134     -1.07099938     -0.10784217
H      -1.67703982      0.51835256     -0.92579856
