17
b3lypvtz=-191984.28227357
C      -3.05788150     -0.43942825     -0.21337677
N      -1.96098754      0.19444260     -0.08973026
C      -0.78450701     -0.47519447      0.19216168
C       0.38421183      0.20795631      0.26085766
N       0.45663835      1.55212220     -0.03026642
C       1.68509113     -0.47390978      0.57712160
C       2.65645862     -0.52832274     -0.61157632
H      -3.97128438      0.10893040     -0.42091173
H      -3.13164895     -1.52853525     -0.11977237
H      -0.79411232     -1.55227281      0.34805052
H       1.16566937      2.08442142      0.44695873
H      -0.44124775      2.00826563     -0.10252615
H       1.47377109     -1.48386186      0.92873322
H       2.16589417      0.05122194      1.41084229
H       3.59312747     -1.00577742     -0.32030146
H       2.88491587      0.47003231     -0.98428085
H       2.22502653     -1.09893724     -1.43479237
