15
b3lypvtz=-191205.99450954
N      -3.03566791     -0.53610678     -0.20049212
C      -2.07871241      0.06980390     -0.00261883
C      -0.85795700      0.83246479      0.27518059
N       0.30227184      0.22235629     -0.33567921
C       0.82398042     -1.04874540      0.21688173
C       2.25335637     -0.52857817     -0.05093947
C       1.61291206      0.87472318     -0.12599734
H      -0.76688252      0.93397711      1.37158329
H      -0.98606823      1.83888750     -0.13129377
H       0.48710086     -1.94443935     -0.30372528
H       0.62102909     -1.15989205      1.29116561
H       2.64517103     -0.85954384     -1.00978375
H       2.99502998     -0.69367426      0.72556311
H       1.92104077      1.54753230     -0.92711687
H       1.67786066      1.40593577      0.83434830
