18
b3lypvtz=-210212.25425946
C       0.88196380      1.72709889     -0.07058854
C       0.32191254      0.40376440      0.46356892
C       1.41538757     -0.64602868      0.60257762
F       1.98053273     -0.93529494     -0.64588532
C      -0.82754527     -0.10822870     -0.38409398
C      -2.21651212      0.43240566     -0.19021985
C      -1.89387914     -0.98367788      0.21576345
H       1.30872701      1.59059982     -1.06472128
H       0.09598692      2.47938519     -0.14021128
H       1.66771915      2.11625001      0.58011815
H      -0.05587988      0.56979477      1.48040595
H       1.01755320     -1.58190784      0.99953570
H       2.22461978     -0.29359389      1.24653586
H      -0.54735582     -0.33943029     -1.40467260
H      -2.37040598      1.15717406      0.59895202
H      -2.83847678      0.58777427     -1.06078269
H      -2.29380897     -1.79249684     -0.37968646
H      -1.83648773     -1.20041602      1.27486133
