16
b3lypvtz=-204421.14445655
C       2.28312880     -0.02206969      0.07270734
C       1.04611454      0.82736132      0.11917981
C      -0.29512685      0.30251261     -0.12033090
O       0.35428520      1.04411695     -1.13394445
C      -1.63654212      0.67407969      0.50572735
N      -1.91329434     -0.78245126      0.65702241
C      -0.79512852     -1.13336534     -0.26371929
H       3.11774193      0.53877052     -0.35201116
H       2.12534324     -0.91173498     -0.53615871
H       2.56674960     -0.33514794      1.08003088
H       1.12155365      1.72986235      0.72244613
H      -2.27983945      1.19421403     -0.21174322
H      -1.62176779      1.22956683      1.44532167
H      -2.82666364     -1.06873282      0.33021676
H      -0.15089207     -1.93633023      0.09951834
H      -1.09566216     -1.35065202     -1.29393246
