18
b3lypvtz=-181899.22614476
C       1.97926366     -0.57874107     -0.20774491
C       0.68818218      0.10092597     -0.65873240
C       0.16844728      1.19716592      0.29527151
C      -1.35320101      1.21197961      0.04943994
N      -1.75433195     -0.12958528     -0.42504040
C      -0.51076538     -0.82629244     -0.80163414
C      -1.25121705     -1.22012889      0.42176155
H       2.79808485      0.13971989     -0.13501152
H       1.85455559     -1.04545566      0.77158257
H       2.28478859     -1.35615366     -0.91075068
H       0.86088679      0.54983002     -1.64270192
H       0.40010068      0.93759138      1.32986912
H       0.62825722      2.16636026      0.10270116
H      -1.60954774      1.91815090     -0.74270859
H      -1.93033784      1.48533474      0.93420391
H      -0.56167665     -1.45932322     -1.68016462
H      -1.86331859     -2.11302473      0.41341538
H      -0.82817063     -0.97835373      1.39031410
