18
b3lypvtz=-181917.25534535
C       2.58819204     -0.19998784      0.56506415
C       1.68209807      0.31078648     -0.56516377
C       0.22261702      0.21334440     -0.25111655
C      -0.66110058      1.19799824     -0.05165974
C      -1.99663436      0.60998610      0.34145766
C      -1.81639686     -0.87013652     -0.06267914
N      -0.35165090     -1.05806770     -0.04378047
H       2.36885562     -1.23940517      0.80902898
H       3.63867918     -0.13140951      0.27818196
H       2.44338498      0.38994520      1.47101408
H       1.89415394     -0.25919321     -1.47771860
H       1.91883970      1.35164742     -0.78937284
H      -0.42749553      2.25089404     -0.04823905
H      -2.85306267      1.06783621     -0.15617461
H      -2.16728195      0.70239002      1.42089954
H      -2.31080694     -1.56544806      0.61499033
H      -2.21439025     -1.03100992     -1.07206599
H      -0.01168551     -1.78264317     -0.66134095
