14
b3lypvtz=-203690.00808069
C      -2.37090284     -0.44175648     -0.46522365
C      -1.62802632      0.51337696      0.07546008
C      -0.24491986      0.33555485      0.64049916
C       0.84031287      1.18100634     -0.09458835
O       1.83251715      0.20162946     -0.50019288
C       1.35175031     -0.99224156     -0.07743053
N       0.25499973     -1.04896968      0.54454125
H      -3.35966468     -0.22959113     -0.84955345
H      -2.01420607     -1.46068486     -0.52841143
H      -2.01568996      1.52656909      0.14015131
H      -0.27583665      0.60975752      1.70006090
H       0.46503246      1.67302954     -0.99106233
H       1.33126375      1.91204026      0.54545584
H       1.98220710     -1.83882132     -0.31627292
