17
b3lypvtz=-217662.82478875
C       3.15780762     -0.10860312      0.09905995
O       1.88468871      0.26699961     -0.37738066
C       0.83540638     -0.50042600      0.18827318
C      -0.47578160     -0.05808522     -0.38996493
C      -1.14619646      1.20436531      0.10691685
C      -1.73355374     -0.12457544      0.43675858
O      -2.95448651     -0.43546483     -0.18025834
H       3.23749593      0.02072908      1.18651112
H       3.38856876     -1.15481599     -0.14083459
H       3.89016915      0.53402163     -0.38640757
H       0.82981901     -0.37687157      1.28173921
H       1.00511406     -1.56820918     -0.01609244
H      -0.60812961     -0.26692259     -1.44429906
H      -1.67875981      1.79811919     -0.62202122
H      -0.66174010      1.76721113      0.89289126
H      -1.64300355     -0.47330466      1.46202415
H      -2.98177025     -1.38383835     -0.34334149
