16
b3lypvtz=-204433.45577827
C      -2.46010351     -0.79937704     -0.06022894
C      -1.35007156     -0.05676512     -0.04697475
N      -1.29531855      1.32445621      0.13867773
O      -0.13312465     -0.66837666     -0.19268780
C       0.98581688     -0.09482904      0.44842092
C       1.94729918      0.72873558     -0.36068016
C       2.29733610     -0.68266587      0.06573918
H      -2.39141161     -1.87476086     -0.06615041
H      -3.43477910     -0.33622652     -0.07022529
H      -2.20612230      1.75673325      0.14933892
H      -0.66108317      1.80443597     -0.48461636
H       0.80939789      0.17910363      1.48059017
H       1.71330737      0.87289157     -1.40674984
H       2.44551536      1.56112784      0.11771286
H       2.27742172     -1.44536382     -0.69970267
H       3.04016994     -0.82804814      0.83706143
