18
b3lypvtz=-181915.89866987
C      -2.24094129     -0.38765974      0.16485092
C      -0.74980873     -0.40659280      0.11331507
C       0.04045685     -1.37863868     -0.34883460
N       1.40611087     -1.03900166     -0.36557916
C       1.53093821      0.14011216      0.51513395
C       0.12482953      0.78734055      0.47628618
C       0.02157829      1.92446019     -0.55261058
H      -2.66710908      0.38921032     -0.47847370
H      -2.60458839     -0.18638416      1.17787441
H      -2.66027331     -1.34280095     -0.15426542
H      -0.26665824     -2.33363101     -0.75301605
H       2.03500478     -1.79636640     -0.14013449
H       2.31444916      0.81266994      0.16356556
H       1.77334962     -0.16541173      1.53989829
H      -0.13334479      1.19020764      1.45996997
H      -0.99832509      2.30674979     -0.61992483
H       0.31690203      1.57551944     -1.54363761
H       0.66996857      2.75950808     -0.27767991
