11
b3lypvtz=-269608.20601262
O      -2.68497254      0.51836925      0.49147740
C      -1.56163857      0.19619679     -0.19358571
C      -0.32405023      0.11720137      0.30802592
C       0.82956491     -0.23310813     -0.48508784
F       0.59137308     -0.48251662     -1.79044662
C       2.08012974     -0.32509974     -0.03104950
F       3.10285899     -0.65744143     -0.83492875
H      -2.47260200      0.68904154      1.41665990
H      -1.77615073      0.00045238     -1.23410004
H      -0.14260477      0.31985117      1.35766887
H       2.35799212     -0.14304659      0.99536637
