11
b3lypvtz=-241308.51336531
C       3.03266844     -0.38237307     -0.00001488
C       1.85580683      0.24372931     -0.00001060
N       0.67436632     -0.49606851     -0.00000834
C      -0.45835040      0.05684004     -0.00000499
F      -0.65302758      1.38756945     -0.00000741
C      -1.71085926     -0.75058516     -0.00000521
O      -2.81351808     -0.27155539      0.00000066
H       3.08262661     -1.46247843     -0.00001701
H       3.95775062      0.17571695     -0.00001633
H       1.79290376      1.32693191     -0.00000869
H      -1.51422126     -1.83571308     -0.00000119
