16
b3lypvtz=-181117.16905054
C       1.93018851      0.33955354     -0.34608475
C       0.54804878     -0.21921179     -0.22886235
C      -0.02476225     -1.39571018      0.53201373
N       0.23069617     -1.49702026     -0.89357729
C      -1.33315673     -0.63453769      0.79913459
C      -0.72361118      0.53890996      0.02544660
C      -1.09651644      1.79140822     -0.18852363
H       2.04366894      0.90066096     -1.27712758
H       2.15265961      1.01354896      0.48283142
H       2.66198529     -0.46759950     -0.35348071
H       0.47094293     -2.08840173      1.19788796
H      -0.62013124     -1.45310206     -1.44812131
H      -1.49416894     -0.38567621      1.84918188
H      -2.23971453     -1.09812717      0.40231387
H      -0.43738122      2.50092754     -0.67320886
H      -2.06874770      2.15437741      0.12017642
