11
b3lypvtz=-238903.76544752
C      -2.25421310     -0.50566193      0.34033990
N      -1.34893216     -0.19961915     -0.48272315
C      -0.22747023      0.54702548     -0.12518801
N      -0.16594582      1.80956638     -0.00475119
C       1.06140709     -0.22459935      0.00885448
N       2.20746909      0.23153973      0.17797451
F       0.87326875     -1.55244717     -0.04579877
H      -3.12357499     -1.05492869     -0.01107748
H      -2.21437530     -0.24730640      1.40202764
H      -1.07763223      2.24434382     -0.13680578
H       2.15826688      1.25006028      0.20030485
