14
b3lypvtz=-203690.57400638
C      -1.10853161     -1.84307130      0.28785704
N      -1.18878295     -0.82772951     -0.45724657
C      -0.72706627      0.42738760     -0.06880672
C      -1.82241297      1.44268837      0.07601848
C       0.58036519      0.74022545      0.07334099
C       1.70491613     -0.16170545     -0.14126552
O       2.86230374      0.15128467      0.05526824
H      -1.46777384     -2.80041036     -0.08068026
H      -0.69273267     -1.80962691      1.29911254
H      -1.42058005      2.42555300      0.31056902
H      -2.51468743      1.14392603      0.86747654
H      -2.40167853      1.50018821     -0.84746032
H       0.84580502      1.76224415      0.31246128
H       1.46076527     -1.17021095     -0.52457873
