12
b3lypvtz=-223834.86789499
C       2.17887995      0.57944013      0.13782052
N       2.32812656     -0.64168649      0.50000981
N       1.08472675     -1.25579607      0.29058122
C       0.30004163     -0.34872519     -0.18106390
O       0.92806936      0.85962062     -0.30934099
C      -1.14850558     -0.45071710     -0.53166495
N      -2.05931408      0.27020659      0.35749686
H       2.90435461      1.37391296      0.14540460
H      -1.40339787     -1.50921526     -0.52489833
H      -1.29871858     -0.08496320     -1.54915924
H      -1.85815205      1.26287799      0.35317891
H      -1.95611071     -0.05495497      1.31163546
