21
b3lypvtz=-193494.89823593
C       1.87071180      1.16861873     -0.38564655
C       1.41755987     -0.05437487      0.42067180
N       1.53763126     -1.32321498     -0.30826742
C      -0.02663139      0.08798991      0.92586620
N      -1.01912173      0.02554505     -0.15627311
C      -1.86800046      1.20229260     -0.24155269
C      -1.80416452     -1.20106671     -0.13951590
H       1.83488045      2.08274460      0.21289601
H       2.89726052      1.04035094     -0.73504813
H       1.23128746      1.30587477     -1.25979790
H       2.05110484     -0.13721802      1.30980489
H       0.97833406     -1.26237072     -1.15342744
H       2.49601658     -1.46894682     -0.60422552
H      -0.21535174     -0.70621804      1.65467377
H      -0.12024317      1.03706655      1.46093198
H      -1.25904751      2.10160965     -0.33252119
H      -2.50076480      1.13687414     -1.12846165
H      -2.52906752      1.32382898      0.63456595
H      -2.47880673     -1.26427515      0.73223224
H      -1.14109683     -2.06399977     -0.11786550
H      -2.41632643     -1.26037284     -1.04134585
