12
b3lypvtz=-254523.89580457
C      -2.34427186     -0.87095345      0.49415473
C      -1.32180068     -0.05874197      0.27596151
O      -0.12711133     -0.55931053     -0.18809475
C       0.93005109      0.24690448     -0.41908316
O       0.73602744      1.56131462     -0.16658894
C       2.07607899     -0.26294139     -0.86834816
F       3.11108709      0.60655104     -1.08304144
H      -3.27449818     -0.46363184      0.85808480
H      -2.27557444     -1.93474133      0.31808934
H      -1.34835884      1.00712030      0.43843341
H       1.55915764      2.02431280     -0.37023721
H       2.27931307     -1.29578272     -1.08343012
