17
b3lypvtz=-191982.3550853
C      -2.37584433     -1.04809514      0.16749533
C      -1.48021253     -0.10549496     -0.11343697
C      -1.82597969      1.35621945     -0.18230692
C      -0.04241119     -0.46889314     -0.39652750
N       0.84437546      0.06004784      0.63060545
C       2.20895363      0.13191841      0.48224978
N       2.92978705     -0.06525335     -0.54804572
H      -3.41244826     -0.80511685      0.36329726
H      -2.10407748     -2.09556557      0.20281855
H      -2.86736285      1.53353799      0.08191187
H      -1.19214222      1.94354430      0.48511846
H      -1.65709780      1.74381620     -1.19123673
H       0.25760988     -0.02770188     -1.35211324
H       0.05960332     -1.55523505     -0.49597965
H       0.50395835      0.00209305      1.57676283
H       2.70459471      0.43483433      1.40526521
H       2.38238396     -0.35782162     -1.35610198
