18
b3lypvtz=-181852.48224869
C       1.43388882     -1.02914564     -0.38352096
C       0.39383852      0.05796589     -0.11614561
C       1.08608594      1.39925156     -0.35470676
C      -0.63908371     -0.10390967      1.04630553
C      -1.56148472      0.80746342      0.21462519
N      -0.97813632     -0.13008210     -0.86308957
C      -1.27078536     -1.21840356      0.19080647
H       2.32397075     -0.83825514      0.21858485
H       1.73471174     -0.99296744     -1.43275739
H       1.10846073     -2.04204991     -0.16786858
H       1.38158673      1.47328592     -1.40346190
H       0.49051861      2.27501192     -0.11657719
H       1.99596789      1.45173779      0.24575335
H      -0.45411037     -0.09021820      2.12571648
H      -1.32471079      1.85748355      0.08902903
H      -2.63454703      0.67456252      0.34491032
H      -2.33750598     -1.39563292      0.32039902
H      -0.74866546     -2.15629801      0.04209771
