14
b3lypvtz=-227008.67774427
C      -2.49796997     -0.52834842      0.28186313
C      -1.24912302     -0.07206756     -0.42196547
C      -0.71979253      1.32518765     -0.30055199
N      -0.08418471      0.21430609      0.38999874
C       1.16990939     -0.27195558      0.08235494
O       1.42620730     -1.41110653     -0.22414126
O       2.11424732      0.69057725      0.23601492
H      -3.37518564     -0.35297770     -0.34357656
H      -2.44525479     -1.59572255      0.50123844
H      -2.62883037      0.00700462      1.22237215
H      -1.03761441     -0.56961793     -1.36313004
H      -1.22559205      2.04024695      0.33674045
H      -0.19718975      1.75101918     -1.14836957
H       2.96305125      0.25920254      0.06915712
