12
b3lypvtz=-226251.07681523
N       2.36252884      0.34696202      0.00016160
C       1.25108888     -0.39782395     -0.00004621
C      -0.05824586      0.00873904      0.00014275
C      -1.08240409     -1.04769979     -0.00002617
O      -0.84268297     -2.23998938     -0.00037248
C      -0.46642501      1.40340709      0.00036336
O      -1.61359793      1.80305124      0.00033538
H       2.33641545      1.35150456      0.00023367
H       3.26585151     -0.08966708     -0.00036921
H       1.41587929     -1.47067588     -0.00036111
H      -2.11906603     -0.67507875      0.00006509
H       0.36047593      2.14998288      0.00007235
