16
b3lypvtz=-204462.74728673
C      -3.13297659     -0.34924060     -0.25102789
C      -1.85929626      0.42132170     -0.12198636
N      -0.82707213     -0.05901085      0.42619770
C       0.35736089      0.76923785      0.50310283
C       1.62202184      0.08778110     -0.02860004
C       1.68803920     -1.41717223      0.02232685
O       2.53400960      0.76750868     -0.43852254
H      -3.42221408     -0.43514419     -1.30191627
H      -3.94760089      0.17488730      0.25609952
H      -3.02364459     -1.34350867      0.17687245
H      -1.86387730      1.44263784     -0.53091188
H       0.56439925      0.96892912      1.56214078
H       0.26212804      1.73819245     -0.00162194
H       1.44612768     -1.77732727      1.02394398
H       0.93167563     -1.84207163     -0.64024298
H       2.67953071     -1.74804059     -0.27623121
