12
b3lypvtz=-247136.7507075
N      -1.24088679      0.36302933      1.03447164
C      -0.80683714      0.05694171     -0.23010847
N      -1.80417908     -0.07889048     -1.18387620
N       0.41302262     -0.10729765     -0.61889719
O       1.25890470     -0.11521136      0.54871666
C       2.57354286     -0.24532601      0.26474187
O       3.08838748     -0.34696649     -0.80520084
H      -2.13905467     -0.01661122      1.28647420
H      -0.53742405      0.28884305      1.75072059
H      -1.42165676     -0.22654912     -2.10701950
H      -2.48489659      0.66791573     -1.17035930
H       3.10097742     -0.23967748      1.23023655
