13
b3lypvtz=-216142.05625649
C       1.84210283     -0.20928778      0.33022203
C       0.42948050      0.17325038      0.06401235
O       0.15084516      1.25784111     -0.86052071
C      -0.49850179      0.01039424     -1.08794990
C      -1.75889762      0.02709023     -0.21963706
C      -0.78726778      0.15239219      0.98913023
O      -0.92249141      0.06002061      2.17228892
H       1.88787872     -1.17674843      0.83183565
H       2.31838693      0.52806476      0.97863532
H       2.40501739     -0.26410251     -0.60110985
H      -0.31709347     -0.49852676     -2.02357989
H      -2.44175572      0.85429058     -0.40469032
H      -2.30780374     -0.91457861     -0.16863676
