15
b3lypvtz=-212139.32241252
C      -2.59348244     -0.21601831      0.13837102
N      -1.19891328     -0.60007354      0.10397496
C      -0.19762652      0.31371820     -0.07883753
N      -0.31828987      1.56400687     -0.32318382
C       1.20533354     -0.26388461     -0.01178830
N       1.52026368     -1.48108845     -0.25117426
N       2.13365510      0.66061399      0.36218468
H      -2.89679126      0.21733449     -0.81671492
H      -2.80843615      0.51200624      0.92864859
H      -3.19935527     -1.10242291      0.31186092
H      -0.94151796     -1.45448268      0.56793567
H      -1.28711852      1.87233199     -0.33957031
H       0.71288780     -2.02017575     -0.54645161
H       3.09458281      0.42164574      0.18398230
H       1.85383033      1.62203674      0.24427062
