16
b3lypvtz=-227737.72054772
N      -0.53550536      1.00879297      1.16598989
C      -0.58228636      0.71221389     -0.25926526
C      -1.53277102     -0.37275383     -0.81601412
O      -0.43013485     -1.10418524     -1.39295271
C       0.54525237     -0.19354783     -0.81934010
C       1.44593489     -0.85191417      0.21356155
O       2.26150539      0.11874119      0.84901946
H      -1.12929322      1.79183742      1.40394543
H      -0.83645665      0.21917958      1.72460021
H      -0.65364861      1.65584906     -0.79577053
H      -2.25438487     -0.05527634     -1.57267900
H      -2.05312719     -0.95403061     -0.04634911
H       1.15844750      0.27212536     -1.59450861
H       2.10698112     -1.56854222     -0.27496732
H       0.83939548     -1.41374137      0.93635605
H       1.64999137      0.73495215      1.27847416
