16
b3lypvtz=-181116.98188957
C       1.59176529      1.94112490     -0.11512929
C       1.24096661      0.82417526      0.14937623
C       0.80857052     -0.53604622      0.46963450
C       1.19855519     -1.53312480     -0.63441869
C      -0.70430111     -0.58096160      0.79514127
N      -1.51635333     -0.29714860     -0.37140202
C      -2.32495560      0.66720135     -0.31408554
H       1.90721545      2.92637292     -0.35131693
H       1.32017260     -0.83023523      1.39216237
H       0.93038095     -2.54731602     -0.33391034
H       0.67669232     -1.30106815     -1.55998586
H       2.27176427     -1.49988826     -0.81798043
H      -0.91694536      0.10243452      1.62810912
H      -0.93778124     -1.59871741      1.11914157
H      -2.45073083      1.29820632      0.57460215
H      -2.93994274      0.90145603     -1.18025710
