15
b3lypvtz=-219527.41061868
C      -2.31322935     -1.12895567     -0.48114096
C      -1.84898949     -0.08376957      0.54345443
C      -0.54221747      0.58015063      0.15746371
N      -0.43242923      1.78446500     -0.24932781
C       0.65973632     -0.27352685      0.26210523
C       1.85964790      0.13176870     -0.13073903
F       2.93941430     -0.65527564     -0.01716645
H      -3.25127674     -1.58606075     -0.16436528
H      -1.57886471     -1.92605767     -0.60329928
H      -2.47224043     -0.67051508     -1.45804356
H      -1.72925747     -0.56305112      1.51991017
H      -2.61248794      0.68804192      0.65735290
H      -1.34168230      2.24429954     -0.27162452
H       0.55741766     -1.26807675      0.67712677
H       2.07942696      1.09789634     -0.56205730
