18
b3lypvtz=-202815.20811711
C      -2.99857641     -0.17564069     -0.30149626
N      -1.65992039      0.27009296      0.06951604
C      -0.60308869     -0.65929195     -0.33107600
C       0.77658094     -0.06093366     -0.14255832
N       1.71769817     -0.80242006      0.29458298
C       3.04367752     -0.22102803      0.39445037
N       0.87302262      1.24980901     -0.55361603
H      -3.08194983     -0.20491544     -1.38942448
H      -3.73612782      0.53617304      0.06976144
H      -3.25908376     -1.17337563      0.08074218
H      -1.61775786      0.40584475      1.07334592
H      -0.62146170     -1.61888962      0.19582589
H      -0.74117795     -0.86909354     -1.39675239
H       3.07417176      0.65152946      1.06417105
H       3.43168563      0.10224344     -0.58064489
H       3.73355816     -0.96107609      0.79745516
H       1.67382706      1.78545945     -0.26660686
H      -0.00507743      1.74551261     -0.59003783
