9
b3lypvtz=-287147.51876806
C      -1.91946289     -0.28768549      0.11375169
N      -0.94052769      0.50395881      0.13367557
O       0.27067075     -0.18039339      0.31867371
C       1.35683704      0.67977383      0.34260491
O       1.33893637      1.85713458      0.22799337
O       2.45480970     -0.06619294      0.52168463
F      -1.85366765     -1.60865252      0.24767391
H      -2.91834116      0.10144538     -0.02207133
H       2.21074552     -0.99938826      0.58702917
