14
b3lypvtz=-203690.12966065
O      -2.20765438     -0.49040837     -0.58185049
C      -1.67381059      0.43322891     -0.02410216
C      -0.32287285      0.34574657      0.66735624
C       0.69263924      1.25409700      0.00848357
C       1.70914848      0.54372995     -0.46035603
C       1.53266900     -0.91849475     -0.16915202
N       0.27719187     -0.98258099      0.60623551
H      -2.16165533      1.42857956      0.02880642
H      -0.50819744      0.67178856      1.70595918
H       0.57635959      2.32683232     -0.04747798
H       2.57370319      0.94426954     -0.97094703
H       1.48380765     -1.50990007     -1.09126194
H       2.37490786     -1.31342302      0.41137718
H      -0.38308628     -1.62830819      0.19283054
