13
b3lypvtz=-242089.14569926
C       2.23745961     -0.41539586     -0.54011937
N       0.86724613     -0.55166190     -0.08623501
C      -0.10242049      0.33818767     -0.41197649
O       0.06590124      1.32742699     -1.10553970
C      -1.45378599      0.01913399      0.15668513
C      -2.54002529      0.74526177     -0.03040206
F      -1.49701526     -1.11383563      0.91090087
H       2.53680571     -1.27424343     -1.14354719
H       2.92212449     -0.32392230      0.30499904
H       2.30053638      0.48374229     -1.14681631
H       0.61314208     -1.33281484      0.49357603
H      -2.46398947      1.63546585     -0.63418453
H      -3.48587916      0.46265540      0.40635960
