18
b3lypvtz=-205205.2839033
C       2.07590861     -1.47221967     -0.32133380
C       1.07701558     -0.97034774      0.39569240
C      -0.07248027     -0.16798622     -0.13829795
C      -0.01442648      1.29564952      0.36569903
N       1.11003764      2.09985651     -0.10173310
C      -1.40720573     -0.82807314      0.24846777
O      -2.54577217     -0.15421360     -0.27946055
H       2.12302823     -1.34501678     -1.39675015
H       2.87980073     -2.03256103      0.13814306
H       1.07851956     -1.12445533      1.47314105
H      -0.00804698     -0.15047356     -1.23366697
H       0.00291881      1.28592132      1.46005697
H      -0.93860477      1.79512590      0.07638296
H       1.05659841      2.23738572     -1.10441564
H       1.98778457      1.62637537      0.07998958
H      -1.40148816     -1.88008192     -0.05570592
H      -1.53069519     -0.80343385      1.33346736
H      -2.56294641     -0.28339648     -1.23254110
