16
b3lypvtz=-181098.91458659
C       0.78610358     -1.25928572      0.35187439
C       1.18071206      0.00676146     -0.42715744
C       0.88494960      1.31127187      0.35499610
C      -0.63344713      1.12974296      0.10568283
C      -1.24635862     -0.00136007      0.94855640
N      -0.67610483     -1.06977378      0.05768127
C      -0.29329205      0.02197345     -0.93959701
H       1.13413549     -2.17408947     -0.13060258
H       1.03791046     -1.30762738      1.41444626
H       2.06733898     -0.02284359     -1.05732401
H       1.22808633      1.37489779      1.39015092
H       1.26099240      2.17755957     -0.19075416
H      -1.23032929      2.01860305     -0.08847407
H      -2.33565186     -0.02633901      0.88767372
H      -0.95358745     -0.07550044      1.99903664
H      -0.63555766     -0.04209070     -1.96948926
