18
b3lypvtz=-202797.39491782
C      -1.57167814      0.48063720      1.22352620
C      -1.28875454     -0.64294362      0.22026475
N      -1.58085432     -0.28985905     -1.17770917
C       0.15977229     -1.16999864      0.33101128
C       1.20843882     -0.20760472     -0.13426071
N       2.01048254      0.34721713      0.68240117
N       2.90376253      1.27431126      0.19421374
H      -1.41340511      0.14784357      2.25216407
H      -2.60577153      0.82069943      1.13388226
H      -0.91546348      1.33616256      1.04992345
H      -1.94102143     -1.48754533      0.46053355
H      -1.13272220      0.58888315     -1.41651902
H      -2.57587274     -0.13589846     -1.29456529
H       0.37112406     -1.43349222      1.36828525
H       0.22422517     -2.07906973     -0.27353419
H       1.26604382      0.00280956     -1.20948068
H       3.16408755      1.13775396     -0.78018184
H       3.71760671      1.31009397      0.78904519
