16
b3lypvtz=-204446.39516167
C      -3.15845963     -0.28788745     -0.27207881
C      -1.84147046     -0.00491184      0.37908338
C      -0.68317159      0.12188313     -0.25790055
C       0.63638105      0.36411429      0.41608584
O       1.25839597      1.47891898     -0.21842274
C       1.50222027     -0.88874454      0.32782103
N       2.55210163     -1.03349569     -0.35922183
H      -3.06294360     -0.36774492     -1.35481063
H      -3.58869161     -1.22094678      0.10205447
H      -3.88174337      0.50084903     -0.04862250
H      -1.85599774      0.10420197      1.46103822
H      -0.63319765      0.02491893     -1.33838038
H       0.45668454      0.57118129      1.47888483
H       2.03108482      1.73402831      0.29710115
H       1.14257585     -1.73286419      0.92046212
H       2.74762453     -0.16857651     -0.87282761
