10
b3lypvtz=-199764.62658911
N       1.35959531     -2.18615632     -0.13647858
C       0.79392665     -1.21345499      0.09652301
C       0.01902351     -0.00012246      0.38183772
C       0.80044964      1.20901892      0.09653002
N       1.37134394      2.17865579     -0.13650117
C      -1.29151975      0.00344900     -0.44143555
N      -2.45618268      0.00679618      0.02673448
H      -0.23592717      0.00056107      1.44561310
H      -1.14367108      0.00304928     -1.52032826
H      -2.47951038      0.00690852      1.04790823
