22
b3lypvtz=-183438.09716445
C       2.06442636     -0.92251308      0.01907287
C       1.02131881     -0.13227552      0.81380655
C      -0.12719091      0.52293133      0.00821345
C       0.42505664      1.56790986     -0.97333047
C      -1.07372258      1.21589479      1.00048161
C      -0.91483573     -0.52909822     -0.80455554
N      -1.46199571     -1.60597688      0.02897700
H       2.81845020     -1.33596200      0.69107753
H       1.62347917     -1.76037267     -0.52506929
H       2.58597896     -0.29900406     -0.70820258
H       0.57736312     -0.78530762      1.56991368
H       1.53041769      0.65982270      1.37105307
H       0.98918347      2.33890998     -0.44404153
H      -0.38797175      2.06351758     -1.50887430
H       1.08557037      1.12328722     -1.71948423
H      -1.86915414      1.74863902      0.47368674
H      -0.53334614      1.94371255      1.60991490
H      -1.54017940      0.48654755      1.66164020
H      -0.27852185     -0.89827367     -1.61997394
H      -1.75842308     -0.02249974     -1.27973624
H      -2.18153913     -2.10991558     -0.47345864
H      -0.74590137     -2.28285353      0.26257518
