13
b3lypvtz=-234654.65673176
C       2.31185598     -0.70144548     -0.27769326
N       2.96794124      0.27713725     -0.70818695
O       0.97922256     -0.80635613      0.01226233
N       0.26962346      0.41510884     -0.22861481
C      -0.97634101      0.23441354      0.05137190
N      -1.52639965     -0.86961517      0.64943197
N      -1.87036402      1.24516363     -0.27033426
H       2.77089494     -1.66407969     -0.06688795
H       2.35833622      1.08314704     -0.84125047
H      -0.90662223     -1.66022684      0.71857066
H      -2.46688450     -1.09257385      0.36667507
H      -2.50912167      1.47665038      0.47781412
H      -1.40214133      2.06267648     -0.63357901
