19
b3lypvtz=-171833.58989676
C      -1.89644115     -1.27532008      0.02972875
C      -1.09957911     -0.00000015     -0.00888292
C      -1.89644108      1.27531990      0.02972760
C       0.22818863     -0.00000014     -0.07407840
C       1.28293786     -1.09792341     -0.07806031
C       2.36466147      0.00000009      0.14556306
C       1.28293772      1.09792326     -0.07806121
H      -2.51458211     -1.32519181      0.93198590
H      -1.25985328     -2.15872631      0.00701117
H      -2.58373144     -1.33340132     -0.82045821
H      -2.51458483      1.32519085      0.93198287
H      -1.25985295      2.15872602      0.00701290
H      -2.58372871      1.33340217     -0.82046145
H       1.38062062     -1.60850658     -1.03954466
H       1.20136775     -1.85911873      0.69960664
H       2.76349014      0.00000053      1.15878261
H       3.19738553     -0.00000014     -0.55555244
H       1.38062041      1.60850564     -1.03954599
H       1.20136752      1.85911923      0.69960509
