18
b3lypvtz=-205150.93312403295
C       3.24754320      0.04748998      0.49993840
C       2.05509861      0.45297699      0.00629959
C       1.31401272     -0.03426699     -1.11009028
N      -0.15632541      0.18341565     -0.97476734
H      -0.30343889      1.14693358     -0.67337919
H      -0.58282423      0.12110040     -1.89714190
C      -0.95346188     -0.69260826     -0.02094292
C      -2.40345049     -0.26263933      0.04414732
O      -2.40816984      1.10983407      0.42850081
H       3.75498940      0.61525110      1.26647871
H       3.76883896     -0.81276662      0.09701918
H       1.62425671      1.34140203      0.48103081
H       1.49291961     -1.04621559     -1.46206317
H      -0.46336710     -0.59730965      0.94493256
H      -0.85117195     -1.71834501     -0.36901428
H      -2.88745565     -0.39719919     -0.93226228
H      -2.93516868     -0.88715387      0.76944466
H      -3.31282512      1.43010071      0.47985327
