15
b3lypvtz=-212099.49370223
N      -2.65111697     -0.18700455     -0.24793046
C      -1.54639800     -0.72245097      0.06912584
C      -0.22346312     -0.05930903      0.20768429
C       0.97403792     -0.90006880      0.57838727
N       1.73725814     -1.26365848     -0.62310043
N      -0.17677019      1.19981888     -0.03486365
N       1.00969683      1.85970991     -0.00926038
H      -2.50997977      0.81427518     -0.41024577
H      -1.54014318     -1.79571561      0.26883702
H       1.56627498     -0.37524772      1.34697840
H       0.62520460     -1.82092305      1.04782577
H       2.56746457     -1.78788411     -0.37415788
H       2.03946371     -0.43462299     -1.12048012
H       1.73129564      1.48893994      0.60195635
H       0.86637984      2.85020442      0.10806975
