15
b3lypvtz=-191228.0002063
N       2.48360675     -1.14186137      0.46473410
C       1.85837199     -0.37170018     -0.11844716
C       1.04413504      0.61158822     -0.82810536
C       0.11041107      1.39982504      0.11071227
C      -0.92746831      0.52556689      0.83319312
C      -1.92000086     -0.09492804     -0.11421785
N      -2.11509068     -1.32276643     -0.35056573
H       0.46632217      0.08584867     -1.59158351
H       1.71396943      1.29690626     -1.35082241
H      -0.39753193      2.15998349     -0.48693004
H       0.71156508      1.92954988      0.85044716
H      -1.47180462      1.15853986      1.54052465
H      -0.42772156     -0.25399801      1.41283522
H      -2.53469952      0.61778106     -0.67375529
H      -1.49590607     -1.90808233      0.21599283
