14
b3lypvtz=-227016.63866831
C      -2.14244173     -1.03840931     -0.36308050
C      -1.23962507     -0.16021317      0.06953720
N      -1.45377286      1.13493898      0.50761591
O       0.06603825     -0.63136933      0.26002434
C       1.14620665      0.10293811     -0.10910090
C       2.41281302     -0.63858558      0.21501572
O       1.08690713      1.18870099     -0.62833947
H      -3.17029900     -0.74284828     -0.50879447
H      -1.86489473     -2.06504337     -0.53737319
H      -2.40364256      1.44196135      0.36450275
H      -0.77698585      1.79418990      0.14553484
H       3.26876543     -0.04075645     -0.08255236
H       2.45584833     -0.85041608      1.28376881
H       2.42474899     -1.59607876     -0.30669667
