13
b3lypvtz=-192805.96128861
C      -1.26276678      1.20787593     -0.74455343
C      -0.77816609      0.15181389     -0.12399173
C      -1.08190209     -1.32148199     -0.04442567
O       0.07136380     -1.52758667      0.81542991
C       0.38772119     -0.10314198      0.82416091
C       1.72892925      0.21206218      0.36081380
C       2.83314230      0.49143000     -0.01511840
H      -2.12690147      1.13481369     -1.39252353
H      -0.80748394      2.18354907     -0.63372076
H      -2.01572462     -1.59125177      0.45745805
H      -0.99718593     -1.88070335     -0.98000694
H       0.23723701      0.31279190      1.82663887
H       3.81173738      0.72982910     -0.35006109
