12
b3lypvtz=-226230.6062953
N      -2.06865865      2.17244515      0.74706152
C      -1.53069355      1.20793605      0.42288394
C      -0.87169090     -0.04430144     -0.01006308
O      -1.65759804     -1.17400215      0.36795520
C       0.48083467     -0.18323426      0.62076935
C       1.62032371     -0.18529810     -0.06238027
O       1.66995309     -0.03429518     -1.41562168
H      -0.75908240      0.01016427     -1.09658340
H      -2.54708615     -1.06784147      0.01205231
H       0.51335033     -0.29625367      1.69427169
H       2.57256775     -0.30322743      0.44136352
H       2.57778014     -0.10199177     -1.72160909
