12
b3lypvtz=-226228.06434855
N       2.32524466     -0.87820264      0.32461126
C       1.99153735      0.22179395     -0.22190415
C       0.75154218      0.99337605     -0.08567207
C      -0.50660550      0.50971638     -0.00955863
O      -1.60231625      1.27651848      0.17335009
C      -0.84933303     -0.92792724     -0.21728165
O      -1.95447699     -1.37315277     -0.03856487
H       1.60256316     -1.20764167      0.96720548
H       2.73782383      0.68608841     -0.87098522
H       0.88214079      2.07327606     -0.07997346
H      -1.34314226      2.19431713      0.31574530
H      -0.02003494     -1.55263515     -0.58461309
