16
b3lypvtz=-227735.74858037
N      -2.18837808     -0.63254569     -0.22010834
C      -1.12130424     -0.37604857      0.74056145
C       0.04784645      0.31378950      0.05416914
O      -0.33958445      1.57700151     -0.46969284
C       1.38042417      0.25933749      0.83187421
O       1.89720381     -0.74214116     -0.07112556
C       0.78611586     -0.54205830     -0.98423123
H      -2.98436061     -1.07248419      0.22279754
H      -2.50407183      0.23720585     -0.63173724
H      -0.77624679     -1.33010040      1.14513322
H      -1.42332201      0.24379373      1.60348826
H      -0.66372634      2.12513533      0.25411311
H       1.34866998     -0.09447752      1.86573759
H       1.94416188      1.19531407      0.77364007
H       1.08200504      0.02724127     -1.86825974
H       0.31026217     -1.47777593     -1.27418063
