18
b3lypvtz=-205220.38989494
C      -2.56661846     -0.59697822     -0.06077232
C      -1.16562720     -0.05475518     -0.00127473
N      -1.08662121      1.22389376      0.53878127
C      -0.11990012     -0.73937724     -0.49893794
C       1.33218918     -0.33404887     -0.44236534
C       2.01798296     -0.72358131      0.86485073
O       1.53125767      1.08918838     -0.58538616
H      -3.21719770      0.07109636     -0.63071478
H      -2.59043680     -1.58348734     -0.51752799
H      -2.99046884     -0.67931221      0.94518965
H      -0.15797290      1.57870783      0.70549745
H      -1.76116448      1.44803655      1.25138255
H      -0.32612638     -1.69375001     -0.96546730
H       1.85868154     -0.83916086     -1.26150826
H       1.51820565     -0.25426240      1.71340193
H       1.97865523     -1.80425010      1.00246792
H       3.06249137     -0.40842326      0.85587400
H       1.07077550      1.36653313     -1.38462567
