14
b3lypvtz=-250267.74965791
C       1.55016895     -0.21430461      0.46933865
C       0.13984416      0.18858972      0.13620345
N      -0.15638816      1.41107883      0.33934319
O      -1.50566033      1.68521820      0.00397521
C      -0.82645138     -0.84730677     -0.39905085
O      -1.93340779     -1.05077914      0.46774068
O       2.21208614     -0.78886656     -0.65684302
H       1.53202564     -0.99934464      1.22792862
H       2.09253909      0.64377267      0.87262056
H      -1.58641019      2.62174010      0.20922522
H      -1.15395246     -0.54393349     -1.40017985
H      -0.31643433     -1.80346286     -0.49242761
H      -2.39333472     -0.20601748      0.53446823
H       2.34537539     -0.09638395     -1.31234249
