15
b3lypvtz=-170322.33544351
C      -1.42742388     -0.67936520      0.18583597
C      -1.42741758      0.67937833      0.18583598
C      -0.34768568      1.52448963     -0.26326565
C       0.96029477      1.21971942     -0.20041777
C       1.46215087     -0.00000673      0.52441848
C       0.96028352     -1.21972828     -0.20041773
C      -0.34769974     -1.52448647     -0.26326562
H      -2.36340842     -1.17525103      0.41975135
H      -2.36339755      1.17527279      0.41975137
H      -0.63445852      2.47289427     -0.70602135
H       1.68372928      1.87522220     -0.67121868
H       1.07729523     -0.00000493      1.55050766
H       2.54953594     -0.00001176      0.57873786
H       1.68371200     -1.87523774     -0.67121859
H      -0.63448124     -2.47288851     -0.70602128
