19
b3lypvtz=-171836.97579983
C      -2.31238780     -1.05552590     -0.42217077
C      -1.46296124     -0.54854094      0.46885218
C      -0.55957068      0.59865016      0.25889209
C      -0.91841262      1.66065725     -0.46675266
C       0.78388247      0.51746205      0.94837853
C       1.69597794     -0.61152555      0.43458553
C       2.16001459     -0.41974219     -1.00810302
H      -2.38782992     -0.65979061     -1.42718627
H      -2.95417724     -1.89032220     -0.17413431
H      -1.39444573     -1.02355697      1.44461721
H      -0.24083047      2.49065825     -0.62027165
H      -1.90164795      1.74004876     -0.91111900
H       1.29999480      1.47504226      0.84875161
H       0.61263390      0.36383753      2.01959262
H       2.56722760     -0.67419267      1.09194235
H       1.17451967     -1.56808928      0.52704273
H       2.72481328      0.50908906     -1.11881163
H       2.80567930     -1.24029458     -1.32510436
H       1.31494111     -0.37494942     -1.69644017
