14
b3lypvtz=-203722.83857943
O       0.49257022      2.62955234     -0.13612301
C       0.33888372      1.43249018      0.00121198
C      -1.01385682      0.76839495      0.19982306
C      -1.09983386     -0.65690246     -0.36421567
C       0.12822954     -1.44916916     -0.00909604
C       1.29125179     -0.82485813      0.16325000
N       1.40860418      0.56655994      0.05249799
H      -1.76853181      1.42773205     -0.22353465
H      -1.17836769      0.74317512      1.28261602
H      -2.00092422     -1.14473068      0.01072061
H      -1.20942883     -0.61919438     -1.45524157
H       0.07951482     -2.52467392      0.07743651
H       2.21220453     -1.34326020      0.38942481
H       2.31968445      0.99478435      0.01112996
