12
b3lypvtz=-202935.59022484
C      -2.35815289     -0.02280314      0.00035800
C      -1.01887259      0.00461160      0.00007038
C      -0.21490718      1.22057352     -0.00022172
C       1.11402111      1.13967333     -0.00025915
O       1.77598661     -0.06705749     -0.00007224
C       0.97101218     -1.17453490     -0.00009380
N      -0.29031126     -1.21024404     -0.00002155
H      -2.88398023     -0.96552565      0.00053056
H      -2.93346667      0.89153533      0.00042356
H      -0.68934139      2.19149076     -0.00042383
H       1.80074394      1.97134517     -0.00046680
H       1.57244436     -2.07523448     -0.00005740
