17
b3lypvtz=-215274.95761
C       0.95197887     -0.41357987     -0.57004517
C       2.14072344      0.47921847     -0.28130608
O       2.41101655      0.39501865      1.11964328
N      -0.23293204      0.07886217      0.12074105
C      -1.40365853     -0.76488915     -0.01673021
C      -2.66854360     -0.08748491      0.46033427
N      -2.80797833      1.12421605      0.79022355
H       0.76247611     -0.41099215     -1.64692791
H       1.21278738     -1.44590485     -0.28703685
H       1.90088987      1.50779121     -0.56921571
H       3.00388598      0.14160344     -0.86578473
H       3.04478085      1.07600313      1.35937110
H      -0.00195101      0.19816993      1.10070849
H      -1.31569460     -1.73561280      0.50052540
H      -1.53951105     -1.01294395     -1.07620290
H      -3.54425062     -0.73969114      0.51316641
H      -1.91401927      1.61021577      0.67219959
