16
b3lypvtz=-202039.29634867
C      -2.26195551     -0.28357992      0.41138332
C      -1.43853721      0.01948744     -0.84876681
C      -0.12419462      0.69365912     -0.53366293
N       0.00926678      1.94110768     -0.75203307
C       0.93090089     -0.18149943      0.03621971
N       2.07315438      0.29398257      0.34996288
N       2.99752504     -0.51173725      0.91562106
H      -1.72883714     -0.94450549      1.09766916
H      -2.49226921      0.63793821      0.94700371
H      -3.20303206     -0.76854703      0.14896960
H      -1.99738832      0.68176223     -1.50808576
H      -1.24975017     -0.91173680     -1.39280093
H       0.94355993      2.24375489     -0.46719715
H       0.70242116     -1.24342909      0.17164123
H       3.93235351     -0.15844969      0.79228244
H       2.90678251     -1.50820746      0.73943297
