14
b3lypvtz=-203637.56602209
C       1.70708604      0.18143074     -0.03640469
C       0.52014174     -0.84936500     -0.31465900
C      -0.75771086     -0.65096224      0.54184864
C      -1.40466695      0.73128416      0.13251960
N      -0.22290346      1.61568627     -0.01506538
C       0.62439351      0.98170829     -0.71062684
O       0.22057372     -0.11091017     -1.54845088
H       1.94168468      0.46048464      0.98564568
H       2.57879420     -0.08926391     -0.62664138
H       0.81427953     -1.87991522     -0.50501195
H      -0.53095913     -0.66657878      1.60860686
H      -1.45162411     -1.46672959      0.33533462
H      -2.00067734      0.61688977     -0.77049748
H      -2.03841157      1.12624103      0.92340219
