16
b3lypvtz=-181148.30472149
C       3.20153683     -0.36996731     -0.04319594
C       1.99977297      0.22054800      0.00598642
C       0.73896933     -0.47490459      0.02628132
C      -0.49919405      0.08864066      0.03317047
N      -0.73569143      1.45620265     -0.05387391
C      -1.67401250     -0.77856983      0.06367176
C      -2.94460568     -0.39530133     -0.08254985
H       4.11544776      0.20699897     -0.04645687
H       3.30049350     -1.44796524     -0.08377895
H       1.98143316      1.30662278      0.03576778
H       0.78032137     -1.55696107      0.01894729
H      -1.54264992      1.77663628      0.45873776
H       0.06299188      2.04868223      0.10165441
H      -1.45581291     -1.82778355      0.22288307
H      -3.22528923      0.63064005     -0.28172826
H      -3.75045408     -1.11412771     -0.03447150
