18
b3lypvtz=-181900.91117085
C      -1.41414468      1.76154722      0.10011724
N      -1.58318268      0.63752181     -0.44586030
C      -0.59059201     -0.44150819     -0.27666904
C      -1.36360493     -1.74253564     -0.02624215
C       0.45005206     -0.22055596      0.78816705
C       1.74968418      0.02218546      0.62485063
C       2.50951997      0.15710228     -0.65990034
H      -2.16498142      2.53346576     -0.05944269
H      -0.55373497      2.02499723      0.72245024
H      -0.11144796     -0.52864350     -1.25464965
H      -2.12077557     -1.88025616     -0.79739273
H      -0.68865294     -2.59899510     -0.02967858
H      -1.86759047     -1.70756213      0.94163093
H       0.07391950     -0.27856520      1.80661627
H       2.35115005      0.13388985      1.52298594
H       3.01144089      1.12737150     -0.70725345
H       3.29527388     -0.60078099     -0.72550143
H       1.87804712      0.06472977     -1.54164194
