11
b3lypvtz=-236270.49236573
C       2.68314830      0.36706547     -0.18532253
C       1.54456767     -0.24698980      0.11950385
N       0.32586529      0.40519629     -0.15151702
N      -0.64641946     -0.26313976      0.17120555
O      -1.81552182      0.50895750     -0.15216585
C      -2.98402800     -0.13034199      0.15336406
O      -3.12002028     -1.20999576      0.63357355
H       3.63607696     -0.10325007      0.00800286
H       2.67467397      1.35079659     -0.63348671
H       1.49611599     -1.23251343      0.56996927
H      -3.79445860      0.55421493     -0.13385824
