16
b3lypvtz=-204468.01908167
C      -1.99420808      0.93969156      0.00003692
C      -1.08522817     -0.04269765     -0.00000544
C      -1.52114823     -1.48493374     -0.00005159
N       0.29778811      0.22832469     -0.00000361
C       0.75484710      1.61363414     -0.00003587
C       1.25867750     -0.75797993     -0.00004735
O       2.45522968     -0.55819522      0.00005974
H      -1.73984493      1.98692160      0.00006445
H      -3.04418596      0.69124599      0.00004288
H      -1.16449901     -2.02232027     -0.88110348
H      -1.16452697     -2.02237446      0.88097870
H      -2.60738722     -1.52562445     -0.00006421
H       1.83933213      1.60297010     -0.00009958
H       0.39275348      2.13416450     -0.88741841
H       0.39286570      2.13415613      0.88739706
H       0.84359386     -1.77058701      0.00024680
