17
b3lypvtz=-194381.75368562
C      -1.32996702      1.17513099      0.55176708
C      -0.41678446      0.12283830     -0.04449129
C      -0.93452144     -1.29340501      0.11697289
C       0.35893169      0.47906132     -1.26366590
C       1.08497550      0.41573326      0.07714910
C       2.07947896     -0.64542473      0.31067645
O       3.04932038     -0.52192490      1.02095848
H      -0.93146450      2.18041868      0.41162011
H      -2.31518150      1.13546095      0.08022323
H      -1.46602132      1.01326313      1.62325466
H      -1.00665061     -1.56817282      1.17155995
H      -0.30598723     -2.03069357     -0.37984244
H      -1.93516837     -1.37128886     -0.31471436
H       0.58178117     -0.30670989     -1.97462143
H       0.23770561      1.45960590     -1.70349486
H       1.34799457      1.35553800      0.54466138
H       1.90155858     -1.59943074     -0.22791305
