15
b3lypvtz=-193610.58603314
C      -0.72896005      1.15734395      0.47098334
C      -1.14405588      0.03873133      1.07049258
C      -0.43951271     -1.10408937      0.36156147
C      -0.39968052     -0.58764218     -1.07944123
C       0.23832492      0.75072121     -0.62522184
C       1.47618002      0.16762156      0.11728871
O       0.97440650     -1.02737413      0.73835370
H      -0.92681203      2.17661442      0.77107378
H      -1.74542947     -0.05098345      1.96303084
H      -0.77943579     -2.11639709      0.55294172
H       0.23931272     -1.18995233     -1.72553828
H      -1.38226441     -0.45467215     -1.52619143
H       0.47107411      1.49089128     -1.38584750
H       1.87124604      0.84554367      0.87637805
H       2.27570656     -0.09635673     -0.57996392
