12
b3lypvtz=-249546.37443665
O       2.06015573     -1.88670899     -0.31591575
C       0.90845666     -1.20188202     -0.04841334
C       0.81712335      0.09791121      0.25767789
N      -0.36315163      0.77424928      0.60943508
C      -1.31438776      0.88291382     -0.22606381
O      -2.44870832      1.52238117      0.07988126
O      -1.37437270      0.43953147     -1.48742346
H       2.81422457     -1.28895717     -0.25486501
H       0.04807416     -1.85809968     -0.06819707
H       1.72609445      0.69053094      0.34018742
H      -2.34368965      1.83264358      0.98939857
H      -0.52991884     -0.00461360     -1.67000177
