15
b3lypvtz=-214512.05563781
N       2.45317013     -1.37296835     -0.29255180
C       1.71919431     -0.37175601     -0.06829388
O       2.05515146      0.66914969      0.73168712
C       0.36795325     -0.22342621     -0.74210873
N      -0.50346052      0.62286212      0.06947287
C      -1.49695304     -0.05010976      0.90585980
C      -1.90707647      0.69477229     -0.31241778
H       3.34052946     -1.28912335      0.20231761
H       1.26283761      1.23452522      0.79692001
H      -0.03955097     -1.21838166     -0.94348707
H       0.52274494      0.27614900     -1.70252047
H      -1.65508760      0.37958685      1.88627558
H      -1.52875161     -1.13329563      0.86667208
H      -2.36788419      1.67042750     -0.22706298
H      -2.22261676      0.11168828     -1.17076237
