15
b3lypvtz=-191205.51029185
C       2.35766986     -0.72879097      0.15126493
C       1.10841451     -1.13818643     -0.06822675
C      -0.11183534     -0.32302902      0.05132704
C       0.02593260      1.13923512      0.37891511
N       0.62018891      2.01508785     -0.31777637
N      -1.23048740     -0.91383287     -0.12048012
C      -2.48422474     -0.19321942     -0.03250651
H       3.18808427     -1.41398426      0.04949480
H       2.59495717      0.28603341      0.44100633
H       0.90671450     -2.16661067     -0.34472799
H      -0.44065081      1.47028255      1.30881862
H       1.01907870      1.59938805     -1.16293374
H      -2.40638992      0.88966994      0.10245204
H      -3.05268906     -0.38425951     -0.94525437
H      -3.07098224     -0.61307376      0.78853599
