13
b3lypvtz=-213734.67401001
N       1.76737905     -1.24254062      0.18238634
C       1.56986780     -0.22715920     -0.54273112
C       0.74334472      0.96646036     -0.20220591
O      -0.00019773      0.93248098      1.01320007
C      -0.74366139      0.96619763     -0.20226150
C      -1.56973726     -0.22771460     -0.54284694
N      -1.76696970     -1.24315083      0.18226981
H       1.26514095     -1.14681487      1.06853581
H       2.06098522     -0.17748918     -1.51716171
H       1.22191984      1.92125238     -0.41266380
H      -1.22255802      1.92082062     -0.41275514
H      -2.06076829     -0.17823704     -1.51733082
H      -1.26485718     -1.14723363      1.06846990
