14
b3lypvtz=-231969.12811856
C      -1.58812902      0.56397887      0.21740755
C      -0.88751468     -0.83033229      0.06346096
C       0.41222476     -0.08287676     -0.25718643
C      -0.24724690      1.22485238     -0.10946074
O       0.15929837      0.74480634     -1.40206661
C       1.82323715     -0.51434957     -0.05298884
F       2.00628367     -0.92373904      1.26894354
H      -2.39164104      0.79014471     -0.48173378
H      -1.92134678      0.75289987      1.23657701
H      -0.83714661     -1.37563311      1.00392279
H      -1.24972658     -1.48433871     -0.72875487
H       0.14280754      2.18468216      0.20023824
H       2.07429690     -1.36175247     -0.69644721
H       2.50460321      0.31165761     -0.26191162
