17
b3lypvtz=-215262.65297126
C       1.56728794      1.72299306     -0.10754121
C       0.95640477      0.37033610      0.11192868
C      -0.45378985      0.28204853      0.63129811
C      -1.48359985      0.09902038     -0.49355932
N      -2.83720674      0.08546469      0.06990671
N       1.69021665     -0.63225444     -0.17637519
O       1.03027261     -1.86353208      0.05620795
H       2.56049802      1.63139326     -0.54152507
H       0.94211554      2.32496530     -0.77224082
H       1.63994776      2.26618151      0.83831010
H      -0.70253938      1.18928251      1.18347681
H      -0.52958629     -0.56272390      1.31793736
H      -1.22652792     -0.80285423     -1.06032836
H      -1.42053592      0.94354438     -1.18393657
H      -3.52684706      0.05744481     -0.67190261
H      -2.97552440     -0.75497338      0.62061100
H       1.71156012     -2.50118149     -0.17627856
