17
b3lypvtz=-191963.67814432
C       2.96221681     -0.26318638      0.24565796
C       1.60254643     -0.64913496     -0.34005063
C       0.46486296      0.10414056      0.30210712
C      -0.04363976      1.39075243     -0.20789317
N      -0.81387887      0.15361101     -0.44695896
C      -1.98475529      0.00102571      0.34309548
N      -2.96174001     -0.73544812      0.04458891
H       3.76497314     -0.82674592     -0.23096346
H       3.00639457     -0.46767911      1.31745117
H       3.16838670      0.79916749      0.10207605
H       1.58242632     -0.46015728     -1.41512015
H       1.43269573     -1.72153980     -0.20982518
H       0.36811034     -0.04048158      1.37591572
H       0.38157177      1.82821421     -1.10240296
H      -0.44809948      2.10324202      0.50347875
H      -2.02292551      0.57507410      1.27699136
H      -2.78522782     -1.19367538     -0.85231301
