11
b3lypvtz=-189694.17174606
C      -2.90270801     -0.00406266      0.00023232
C      -1.70232980     -0.05651592      0.00019811
C      -0.28819346     -0.09232617      0.00012816
N       0.48142186     -1.16678701      0.00004658
C       1.76568057     -0.70145566      0.00001499
C       1.78603143      0.67000844     -0.00001688
N       0.47124926      1.05000545      0.00005599
H       0.11445629      1.99005562      0.00005085
H      -3.96350594      0.02787159      0.00026806
H       2.60666358     -1.37410768      0.00001289
H       2.59079422      1.38306799     -0.00007707
