12
b3lypvtz=-249549.17042434
N      -2.29037260      1.00289647      0.19975072
C      -2.03223022     -0.11703643     -0.30524579
O      -0.90837405     -0.89963013     -0.21206324
C       0.09414999     -0.52319433      0.69334639
O       0.82573194      0.61750951      0.22902487
C       1.92564087      0.37779249     -0.52695985
O       2.36784721     -0.69560673     -0.80683162
H      -1.52480575      1.40572947      0.73526498
H      -2.75243310     -0.62994849     -0.93506223
H       0.75689916     -1.37687411      0.78562540
H      -0.33082655     -0.22487071      1.65068456
H       2.35339908      1.34023799     -0.83189020
