15
b3lypvtz=-214516.61744343
C      -3.12915007     -0.37594944     -0.20561334
C      -1.89367068      0.11691360     -0.29343551
N      -0.81680066     -0.22673602      0.52081737
C       0.50671587      0.11918861      0.19770644
O       0.76654082      1.47783958      0.17554549
C       1.48451355     -0.74612660     -0.07939266
N       2.81461067     -0.38392452     -0.34977364
H      -3.90306699     -0.02273791     -0.86883328
H      -3.39881172     -1.13160418      0.52186990
H      -1.64742790      0.87633277     -1.02541269
H      -0.92962677     -1.05449530      1.08349022
H       0.22884835      1.89150328      0.86211192
H       1.24743340     -1.79516091     -0.18602645
H       3.00148191      0.58237333     -0.11854709
H       3.49290521     -0.99030228      0.08971933
