17
b3lypvtz=-191986.13851562
C       2.38779599     -0.10760589      0.69056039
C       1.62202362      0.12016955     -0.61702869
N       0.17576404      0.07213034     -0.50651291
C      -0.58451230      1.12247983     -0.03936632
N      -1.76824513      0.87477063      0.36428268
C      -1.95515532     -0.57946700      0.17505583
C      -0.55154339     -1.15152745     -0.14956940
H       2.18295925     -1.09215255      1.11237022
H       2.12040070      0.64224868      1.43668195
H       3.46271717     -0.04160724      0.51302526
H       1.93146725     -0.61914600     -1.36003396
H       1.88424621      1.09667532     -1.02989054
H      -0.16263166      2.12207789     -0.06233741
H      -2.39895291     -1.02853250      1.06311885
H      -2.65113434     -0.73824660     -0.65376424
H      -0.10020092     -1.63868961      0.72266419
H      -0.55366527     -1.86607841     -0.97378489
