16
b3lypvtz=-181129.70163837957
C       2.76237544      0.15807287     -0.35347789
C       1.75965274      0.13701647      0.51431343
C       0.67454486     -0.90634099      0.55918249
C      -0.68496950     -0.32723133      0.32224880
N      -1.66389321     -0.26278529      1.15305572
C      -2.51774976      0.41915529      0.13083968
C      -1.33031308      0.33875940     -0.86856580
H       3.51413501      0.93597367     -0.33126045
H       2.87182600     -0.60540396     -1.11477132
H       1.68504079      0.91995332      1.26289244
H       0.87636111     -1.67572268     -0.19184266
H       0.65266243     -1.38864239      1.54040349
H      -3.40445264     -0.15955831     -0.12920066
H      -2.81805961      1.42156446      0.43711548
H      -1.48064263     -0.29240743     -1.74584480
H      -0.89651797      1.28759688     -1.18508797
