15
b3lypvtz=-237839.71200889
N       1.73671462     -1.47029501     -0.16156101
C       1.29968911     -0.28830657     -0.08733023
O       1.98177809      0.76354927      0.41610888
C      -0.11515123      0.03526382     -0.53817596
O      -0.25950930      1.44810115     -0.61945941
C      -1.14504614     -0.53083572      0.45347241
N      -2.45280587      0.06384049      0.15056853
H       2.68344808     -1.53411195      0.20955617
H       1.41572371      1.54593020      0.28620358
H      -0.26859545     -0.41825675     -1.52227246
H      -1.20066879      1.61100990     -0.43284980
H      -0.86404348     -0.22260716      1.46206890
H      -1.11394841     -1.62183552      0.41505018
H      -2.90905501     -0.41792723     -0.61527740
H      -3.07277894      0.01812307      0.94798760
