20
b3lypvtz=-182669.03325002
C       2.56437055     -0.93767607     -0.48673542
C       1.69525952     -0.07209872      0.02931701
C       1.96375309      1.40516373      0.10209413
C       0.36988296     -0.53861431      0.58215965
N      -0.75310442      0.04734981     -0.14939199
C      -2.06093565     -0.31355522      0.38700055
C      -3.18265249      0.28919353     -0.44738031
H       3.52118006     -0.61714594     -0.87977572
H       2.35058490     -1.99873318     -0.52593184
H       1.16662776      1.96424687     -0.38992406
H       2.91686098      1.66374570     -0.35775005
H       1.98251811      1.74109595      1.14349944
H       0.28090765     -0.21159225      1.62467919
H       0.34332427     -1.63904105      0.59356872
H      -0.69572528     -0.23402747     -1.12248555
H      -2.11721125      0.06851734      1.41036315
H      -2.19894565     -1.40589555      0.45727597
H      -4.15731546      0.04310618     -0.02361354
H      -3.08688314      1.37438499     -0.49342945
H      -3.16146253     -0.09474833     -1.47034388
