13
b3lypvtz=-213790.24846412
C      -1.79003719     -0.35275561     -0.05713763
C      -0.31916809     -0.14254813      0.00061999
C       0.45823861      0.98186252     -0.10523316
N       1.78646800      0.70172123      0.00977171
C       1.84885552     -0.60070060      0.18876891
N       0.61254950     -1.15642369      0.19145676
O       0.01182422      2.24904081     -0.30165469
H      -2.18649298     -0.77747379      0.86990000
H      -2.28155119      0.60552209     -0.21607067
H      -2.08386428     -1.01455447     -0.87727100
H       2.74974204     -1.17630972      0.31882848
H       0.40100918     -2.13170801      0.31042759
H       0.79242667      2.81432738     -0.33240629
