18
b3lypvtz=-181898.6806696
C       2.81645268     -0.13389957      0.44800026
C       1.82162731      0.58668011     -0.42236444
N       0.57076414      0.42274022     -0.54859279
C      -0.15714123     -0.54925422      0.18114708
C      -1.29565531     -1.22892416     -0.55634083
C      -1.60699107     -0.23206460      0.51673659
C      -2.22279241      1.10612229      0.18929377
H       2.38329648     -0.92600870      1.05288241
H       3.60237648     -0.56729988     -0.17623381
H       3.30753059      0.58065354      1.11414141
H       2.25741953      1.37334962     -1.04180219
H       0.36595139     -1.16050002      0.90940838
H      -1.45911506     -2.28163408     -0.37078770
H      -1.44087317     -0.91548330     -1.58096507
H      -1.93096693     -0.65480471      1.46094982
H      -2.01558526      1.83680225      0.97443573
H      -1.82716790      1.50162506     -0.74398889
H      -3.30736525      1.01565716      0.09525027
