11
b3lypvtz=-241298.18924686
F      -2.43446310      0.49932941      0.00003784
C      -1.59492296     -0.60155183     -0.00004243
C      -0.17615653     -0.14488868     -0.00005991
C       0.40093770      1.08074521      0.00000710
C       1.79000388      0.78243136     -0.00010479
N       2.02983102     -0.49931306     -0.00012145
O       0.76243388     -1.10509172     -0.00007630
H      -1.80903222     -1.20167797     -0.88770960
H      -1.80898773     -1.20177489      0.88756960
H      -0.08473758      2.03866418      0.00005163
H       2.62444763      1.46646498     -0.00006070
