11
b3lypvtz=-233906.79854619
C      -1.99333464     -0.54055756      0.00003011
N      -0.55847397     -0.36798117      0.00001921
N       0.29951394     -1.42106003     -0.00000723
N       1.48558635     -0.97894902      0.00012440
N       1.42263505      0.37709690      0.00006607
H       2.26225035      0.92895207      0.00001217
C       0.12056763      0.84024450      0.00000748
O      -0.31284726      1.97210678      0.00006777
H      -2.31170415     -1.08245780      0.88943524
H      -2.43191089      0.45468834      0.00000303
H      -2.31171042     -1.08251501     -0.88933724
