17
b3lypvtz=-191980.26173252
N       1.76309021     -0.93892148     -0.60928592
C       1.23976563      0.01641432      0.38311782
C       0.69472341      1.29710581     -0.22083342
C      -0.63343849      1.32675709     -0.22010379
C      -1.22417470      0.08057668      0.39980907
N      -1.72535654     -0.81312480     -0.66830278
C      -0.00433923     -0.54717889      1.10721211
H       2.54740343     -0.53393556     -1.10928786
H       1.03762472     -1.12355044     -1.29581522
H       2.04841439      0.21225605      1.09038389
H       1.33665275      2.05102712     -0.66031397
H      -1.24727997      2.10183247     -0.66231148
H      -2.00841609      0.33224118      1.12548558
H      -2.39789375     -0.32426255     -1.24962054
H      -2.21874536     -1.59912442     -0.25769793
H      -0.01994981     -1.63574965      1.07996044
H       0.00723741     -0.23218591      2.15151500
