14
b3lypvtz=-203649.85482877
C      -1.36986931      1.04777255     -0.02586533
C      -1.72365884     -0.22888703      0.14924522
C      -0.45985726     -0.95931995     -0.28235724
C       0.64428566     -0.15843670      0.49442866
C       0.05385913      0.90688322     -0.53499105
O      -0.06165868     -0.20963192     -1.48639471
N       1.97325676     -0.65380202      0.30961702
H      -1.90974529      1.95897810      0.17544034
H      -2.63572261     -0.66168069      0.52659053
H      -0.43776997     -2.03911982     -0.39152630
H       0.45540958      0.03795500      1.54895412
H       0.60914195      1.76387849     -0.90554191
H       2.19714828     -0.73120547     -0.67512729
H       2.66518056     -0.07338375      0.76464759
