20
b3lypvtz=-182662.5436098
C      -1.93822673     -0.68245372      0.91676231
C      -1.40262846      0.14491964     -0.21778229
C      -2.07138355      1.17044010     -0.73839071
C      -0.06120356     -0.27727559     -0.77204429
N       0.99931897     -0.30256085      0.23520545
C       2.16119976     -1.04618698     -0.22117190
C       1.36610065      1.03165097      0.68365753
H      -2.90248838     -0.31218928      1.26290193
H      -1.23755487     -0.68923158      1.75329614
H      -2.05999849     -1.72557707      0.60899287
H      -3.04904756      1.45679056     -0.37122577
H      -1.66590487      1.75359333     -1.55592042
H       0.20448450      0.36814700     -1.62681397
H      -0.15656681     -1.29624057     -1.16114088
H       2.90132253     -1.09993597      0.57842427
H       1.87261300     -2.06459066     -0.48402595
H       2.64855391     -0.59051040     -1.10139418
H       2.09234710      0.95999031      1.49419984
H       1.81080058      1.64322546     -0.12146915
H       0.48826226      1.55799531      1.05619981
