12
b3lypvtz=-202915.71293981
C      -1.90985351      0.15896657      0.36184722
C      -0.92028026     -0.63043088     -0.39756555
O      -1.20467479     -0.92478652      0.96703401
C       0.42023436     -0.10000059     -0.71484341
C       1.37007613      0.09375100      0.20368114
C       2.65469117      0.61567738     -0.11186933
N       3.70264897      1.03843298     -0.34340828
H      -2.96805620     -0.01071749      0.19324038
H      -1.63125095      1.14631676      0.71365945
H      -1.30851711     -1.35765968     -1.10669535
H       0.61368253      0.12391802     -1.75770653
H       1.18129967     -0.15346755      1.24115675
