15
b3lypvtz=-242845.82902746
C      -1.29598223      1.75109396     -0.09670353
N      -0.84526591      0.38723998      0.10874152
C      -1.65678349     -0.67868562     -0.13094325
O      -1.34215481     -1.84176883      0.01697035
C       0.50001534      0.15673006      0.61930772
C       1.51039599     -0.02986716     -0.50601014
F       2.78539347     -0.12415920      0.04750489
H      -0.66595444      2.27736503     -0.81746801
H      -1.28786233      2.31319540      0.84066031
H      -2.31420458      1.74057036     -0.48249390
H      -2.65833038     -0.37300588     -0.48074874
H       0.48606117     -0.73770984      1.23989696
H       0.79557534      1.00722336      1.23552060
H       1.50723279      0.81885763     -1.19368314
H       1.30850406     -0.94781326     -1.05811562
