13
b3lypvtz=-213751.89753864
C       0.25471317      1.44691476      0.23235018
C      -0.22650304      0.10460878     -0.36414213
C       1.21258700     -0.32270374     -0.09873306
N       1.84662731     -1.38389619     -0.26516295
O       1.59976913      0.89810401      0.41716629
C      -1.28712387     -0.63865323      0.39794570
N      -2.32904451     -1.18344634     -0.06495377
H      -0.18339711      1.72673996      1.18910385
H       0.26774514      2.29425053     -0.44976707
H      -0.46554960      0.14332049     -1.42645691
H       2.81713026     -1.30731697      0.03634532
H      -1.12245967     -0.70294053      1.47646842
H      -2.38449423     -1.07498155     -1.08016387
