17
b3lypvtz=-191986.22592769
C      -3.28218520     -0.18400470      0.60451041
C      -2.24961014     -0.32486740     -0.52235545
C      -1.01765609      0.50049780     -0.30143376
C       0.21186801     -0.00199506     -0.18212578
N       1.36516619      0.74498511      0.03101889
C       2.65227980      0.25810372      0.15664454
N       3.09288521     -0.93243160      0.11140737
H      -4.17748465     -0.77061958      0.39116143
H      -3.58873270      0.85677633      0.72838529
H      -2.87038668     -0.52384298      1.55597432
H      -1.96930871     -1.37530554     -0.63473984
H      -2.72175858     -0.03159138     -1.46658479
H      -1.15976047      1.57630110     -0.22508289
H       0.37656847     -1.06905734     -0.25236270
H       1.25783168      1.74335752      0.10181449
H       3.36667254      1.06436574      0.31930798
H       2.36232733     -1.62438574     -0.04379548
