12
b3lypvtz=-249578.90218717
C       2.39820927     -0.87361224      0.00012663
O       0.96449599     -0.73423572      0.00005867
C       0.51270296      0.52985583     -0.00000010
O       1.19893061      1.51913427     -0.00003070
N      -0.87532311      0.57471073     -0.00004740
C      -1.77026329     -0.48259555     -0.00001464
O      -2.96406650     -0.31952698     -0.00009148
H       2.82398811     -0.41058877      0.88785948
H       2.58174190     -1.94340277      0.00024924
H       2.82404950     -0.41078340     -0.88767873
H      -1.27137993      1.50427227     -0.00016971
H      -1.28133251     -1.46385765      0.00016876
