17
b3lypvtz=-194406.77236912
C      -1.08041461     -0.83673437      0.27254046
C       0.27386184     -1.41193842     -0.14943557
C       1.43456294     -0.48082671      0.24463902
C       1.20950962      0.94302407     -0.23370347
O       2.05973417      1.57041634     -0.82371646
C      -0.15901450      1.52269177      0.07905259
C      -1.29495245      0.56097420     -0.31344653
H      -1.88526093     -1.50298379     -0.04530784
H      -1.13059181     -0.78615858      1.36566445
H       0.28326005     -1.55400421     -1.23446323
H       0.42869529     -2.39766892      0.29339900
H       2.39076762     -0.82879086     -0.14365209
H       1.51061681     -0.44942890      1.33812546
H      -0.19942846      1.69948375      1.16044707
H      -0.24749070      2.48797646     -0.41750515
H      -1.34172313      0.49109488     -1.40460781
H      -2.25213174      0.97287329      0.01197012
