12
b3lypvtz=-252162.05150646
N      -0.28949273     -1.74880869     -0.12073605
C      -0.84113515     -0.52091402      0.00571191
O      -2.04457383     -0.34957961      0.13608752
C       0.07267074      0.68359515     -0.02904123
N      -0.64348618      1.87114963     -0.13919025
C       1.40874212      0.65483138      0.01616423
F       2.12241131     -0.50624679      0.08173095
H      -0.90525879     -2.53993703     -0.04682291
H       0.70411939     -1.88404549     -0.15871609
H      -0.23048594      2.68088359      0.29393075
H      -1.61321137      1.72937382      0.11247067
H       2.05289245      1.52110906      0.00300951
