12
b3lypvtz=-247094.88591722
C      -2.49725255      0.08482354     -0.17055728
N      -1.16319957     -0.02812026     -0.73073824
N      -0.15401115      0.36297632      0.05208768
N       0.93652225     -0.11923124     -0.26848393
O       1.90416107      0.48215732      0.60974813
C       3.15492834     -0.01442944      0.43888861
O       3.50980793     -0.86875595     -0.31256455
H      -2.58415056      1.04855572      0.32609609
H      -3.21927020      0.04295750     -0.98429970
H      -2.72585755     -0.70594841      0.55043822
H      -0.96208243     -0.81459444     -1.34068555
H       3.80040440      0.52960934      1.14334927
