14
b3lypvtz=-203699.35684233
O      -2.39325996      0.43527599     -0.41631820
C      -1.69080486     -0.44886165     -0.00196633
C      -0.31391700     -0.24163737      0.60915327
C       0.33106336      1.13646742      0.33564004
C       1.71822238      0.78021367     -0.24232626
C       1.64105064     -0.72001479     -0.35379687
N       0.59532569     -1.28093334      0.09212191
H      -2.01287599     -1.50734597     -0.03263512
H      -0.45054276     -0.43352706      1.68211251
H       0.40467326      1.73464697      1.24103172
H      -0.27825260      1.69393665     -0.37355290
H       2.54206225      1.07087769      0.41536850
H       1.91961753      1.24195878     -1.21139255
H       2.43841607     -1.31852099     -0.78719070
