12
b3lypvtz=-247104.26104681176
C       0.76737385      0.58022658     -0.36347039
C      -0.51881763      0.08821361     -0.33533886
N      -0.83154233     -1.22361410     -0.26760449
N      -1.58134538      0.96096933     -0.36904447
N       1.91091558     -0.20495240     -0.16978017
O       1.80327715     -1.44335645     -0.02333439
O       3.00008717      0.36773248     -0.15700868
H       0.97577822      1.62561921     -0.50229609
H      -1.72627217     -1.47874776      0.11428713
H      -0.03286517     -1.82807083     -0.10080986
H      -1.35819534      1.92181872     -0.56851231
H      -2.40839397      0.63416162     -0.84343986
