18
b3lypvtz=-181894.22753606
C      -2.16798021     -1.16115965      0.23041444
N      -1.48542448     -0.36716378     -0.46998247
C      -0.41968235      0.39358158      0.17625504
C      -0.72474640      1.88655317      0.03455080
C       0.90161654      0.02989562     -0.47256213
C       1.65801608     -1.18735359     -0.02484021
C       2.18514890      0.18802757      0.29490799
H      -2.00802078     -1.30945185      1.30667426
H      -2.96386145     -1.73966288     -0.23462845
H      -0.35956762      0.14144110      1.24737370
H      -1.66336837      2.14042030      0.52852517
H      -0.81300027      2.15557710     -1.01874123
H       0.07384203      2.48038128      0.48076758
H       0.93846309      0.25439773     -1.53185991
H       2.17289072     -1.77641778     -0.77086971
H       1.24157763     -1.76730845      0.78869601
H       3.05959063      0.54105234     -0.23394481
H       2.12404530      0.52363218      1.32199993
