16
b3lypvtz=-181110.94161515
C      -3.04696591      1.32212815      0.16065666
C      -2.09726696      0.60733125      0.33500692
C      -0.96487891     -0.24855320      0.53743347
C      -0.66168652     -1.35881235     -0.45557551
C       0.23924901     -0.16518197     -0.37922546
C       1.62620364     -0.28773066      0.19980249
N       2.03647675      0.95089356      0.86973637
H      -3.88500187      1.95540002      0.01206267
H      -0.73782533     -0.46123242      1.57487628
H      -0.30562169     -2.29583377     -0.04841939
H      -1.32247516     -1.45421696     -1.30465495
H       0.14441760      0.54836360     -1.18981061
H       1.63246406     -1.08704093      0.94580851
H       2.30891346     -0.60472347     -0.60294608
H       2.97747501      0.85963207      1.23425083
H       2.05652283      1.71957707      0.20885093
