17
b3lypvtz=-191984.43773277
C      -2.73382014      0.32221134      0.08502669
C      -1.59132383     -0.64007672     -0.06352252
C      -0.29787899     -0.28686151     -0.05036037
N       0.80399629     -1.15104565     -0.19345629
C       2.01328398     -0.44395700      0.22485028
C       1.65656225      0.99178154     -0.15865086
N       0.22007823      1.00884130      0.11740667
H      -2.42060773      1.24978535      0.57026128
H      -3.19697770      0.59442937     -0.87142206
H      -3.52801979     -0.10209892      0.70433821
H      -1.82207381     -1.68770566     -0.20867330
H       0.67057893     -2.07199785      0.19327036
H       2.19372967     -0.51400038      1.30513845
H       2.89393851     -0.81222483     -0.30100826
H       2.18776116      1.73062329      0.44136425
H       1.88336624      1.16973477     -1.21682311
H      -0.30949426      1.74564454     -0.31946242
