13
b3lypvtz=-192877.77110709
O      -1.75879069      1.93971759     -0.18050911
C      -0.89868039      1.08142641     -0.09541726
C       0.52848297      1.40428635     -0.00913390
C       1.46038881      0.43633622      0.08522650
C       1.12297570     -0.97703437      0.10820517
C      -0.15138390     -1.37675914      0.03427042
C      -1.27504165     -0.39885029     -0.07443326
H       0.78936097      2.45406360     -0.02527406
H       2.50802481      0.70744817      0.14733750
H       1.92573117     -1.69817177      0.18646629
H      -0.40098474     -2.43090701      0.05163620
H      -1.86501424     -0.59814686     -0.97618317
H      -1.98486882     -0.54350887      0.74780867
