18
b3lypvtz=-181878.79591093
C      -0.60252633      1.01460322      1.20442873
C      -0.39605489     -0.00450554      0.08833634
C      -1.64517157     -0.86491091     -0.09609653
C       0.15882345      0.50605019     -1.27505443
N       1.30259152     -0.47477911     -1.25745466
C       2.10813958     -0.11094183     -0.08129422
C       0.86905495     -0.87142116      0.14538906
H       0.28011730      1.63466389      1.36260400
H      -1.43721510      1.68006053      0.96979383
H      -0.83407126      0.51489471      2.14830166
H      -1.89288054     -1.39522281      0.82683232
H      -1.50142514     -1.60767259     -0.88239847
H      -2.50471858     -0.24739477     -0.36663132
H      -0.49675783      0.30960551     -2.12166183
H       0.48750893      1.54737307     -1.31104799
H       2.17898475      0.93306961      0.20523012
H       3.04167216     -0.65617979     -0.02447249
H       0.88392861     -1.90729221      0.46519589
