15
b3lypvtz=-193596.65994756
C      -3.35344038      0.51059999      0.13051174
C      -2.45866151     -0.47356673      0.01792043
C      -1.05812726     -0.28655880     -0.12399754
C       0.13569444     -0.17710600     -0.25583145
C       1.58910211     -0.03363424     -0.37970487
C       2.07736602      1.31871056      0.14710083
O       2.28157605     -1.12057167      0.24223602
H      -4.40758047      0.29135050      0.22800059
H      -3.05746830      1.55092070      0.12457620
H      -2.79933582     -1.50451498      0.02698173
H       1.85635916     -0.11517631     -1.43651828
H       1.60949675      2.13910922     -0.39829148
H       1.83184372      1.42837089      1.20457860
H       3.15860099      1.38272098      0.02874856
H       1.94612650     -1.21198810      1.14080893
