15
b3lypvtz=-216926.75888672
C      -1.53384423      1.46540343      0.00006766
C      -0.35411905      0.54480994      0.00007106
C       0.90459435      1.03174516     -0.00006686
C       2.12198790      0.22928247     -0.00013976
O       2.17437139     -0.98775401      0.00003439
C      -0.63734593     -0.93440989      0.00025516
O      -2.04480461     -1.15579309     -0.00009821
H      -1.22170617      2.50779756     -0.00001707
H      -2.16618665      1.27557257      0.86968880
H      -2.16628078      1.27545318     -0.86945577
H       1.04923268      2.10610875     -0.00018097
H       3.06058429      0.81927500     -0.00060933
H      -0.15846222     -1.39128837     -0.87235745
H      -0.15898101     -1.39093081      0.87335123
H      -2.19628195     -2.10430390     -0.00005388
