14
b3lypvtz=-203686.67871622
C      -3.29997358     -0.25907547     -0.00000009
C      -1.80280179     -0.35101823     -0.00000004
C      -1.01692418      0.72233331      0.00000017
O       0.34905372      0.77490521      0.00000023
C       1.02707537     -0.46530869     -0.00000006
C       2.46721203     -0.21241519      0.00000011
N       3.60543626     -0.05485632      0.00000030
H      -3.63619691      0.77827040      0.00000011
H      -3.72845836     -0.74943045     -0.87787038
H      -3.72845842     -0.74943079      0.87786999
H      -1.37839787     -1.34743257     -0.00000019
H      -1.41333003      1.72929828      0.00000032
H       0.76856534     -1.05559648      0.88619483
H       0.76856542     -1.05559602     -0.88619529
