17
b3lypvtz=-215265.38280062
C      -1.99414371     -0.77384090      0.09705128
C      -0.77304460     -0.01405687      0.44080664
N      -1.98491842      0.69725717      0.00187396
C       0.40548952      0.06909562     -0.50213167
C       1.54585577     -0.85288521     -0.05668561
O       2.09497216     -0.43412828      1.18058803
N       0.91754940      1.44908344     -0.49011676
H      -2.05919643     -1.28799379     -0.85409526
H      -2.55145952     -1.23845998      0.90134302
H      -0.50879706      0.04770586      1.49014359
H      -2.46682030      1.10218135      0.79681336
H       0.06855914     -0.24635405     -1.49842289
H       2.31756319     -0.87390751     -0.83923355
H       1.18088906     -1.87321713      0.07323537
H       2.11970612      0.53298414      1.12987161
H       0.14223930      2.09281413     -0.60002925
H       1.54555637      1.60372201     -1.27101188
