15
b3lypvtz=-216882.37745714
O      -1.32950570      1.70835001     -0.34750157
C      -1.14052714      0.34855968     -0.01490020
C       0.06773516     -0.34453726     -0.67379228
C      -0.06440846     -1.41773935      0.44614887
C      -0.21899651     -0.05316958      1.17896531
C       0.96116680      0.46534745      0.32593731
O       2.22947669     -0.04213076      0.68346007
H      -2.03391477      2.06420699      0.20194733
H      -2.07897126     -0.20873876     -0.07138208
H       0.22612989     -0.50616837     -1.73862219
H       0.83333120     -1.98059817      0.67420791
H      -0.94929752     -2.05369082      0.40699978
H      -0.38800176      0.11621588      2.24131449
H       0.99587718      1.54045341      0.16293030
H       2.88980619      0.36373965      0.11538695
