12
b3lypvtz=-249705.09648217
C       0.85044961      1.24691275      0.74012367
N       0.24362543      0.16220902     -0.02895183
N       1.19431258     -0.73042169     -0.56358246
N       0.87808893     -1.82944618     -1.01433705
C      -1.10282742     -0.13097770      0.09218759
N      -1.89947264     -0.67375401     -0.71124621
F      -1.56801740      0.21276742      1.30931852
H       1.84261199      1.40840815      0.32824018
H       0.25854305      2.15311244      0.62971577
H       0.93346048      0.99960413      1.79880734
H      -0.13214312     -2.03992073     -0.94231550
H      -1.49873149     -0.77839360     -1.63775999
