17
b3lypvtz=-191980.82118859
C       1.76895883     -1.26944303     -0.11602188
C       0.98087203      0.00048253     -0.47003141
C       1.76894633      1.26965650     -0.11329614
C      -0.38870360     -0.00024449      0.19817572
N      -0.60370004     -0.00175815      1.45013985
C      -1.59887677      0.00092665     -0.70131729
N      -2.80040875      0.00050283     -0.30902967
H       1.22568894     -2.17067717     -0.40281897
H       1.96450982     -1.32439624      0.95683272
H       2.73114805     -1.27515650     -0.63017650
H       0.81744528      0.00164698     -1.55104254
H       2.73113228      1.27648471     -0.62744577
H       1.96450834      1.32230857      0.95966508
H       1.22566337      2.17149986     -0.39814419
H       0.26086196     -0.00247959      1.99111033
H      -1.40163069      0.00226281     -1.77465038
H      -2.81163039     -0.00077424      0.71737004
