16
b3lypvtz=-204407.67957161
C      -2.46308591     -0.10341760     -0.05261177
N      -1.26515649      0.68292087      0.22213751
C      -0.06988088     -0.09389744      0.35093103
C       1.21088533      0.69006814      0.15709354
C       0.72545098     -0.25763695     -0.90937702
O       1.81503716     -1.16360687     -0.71025548
C       2.39652613     -0.25307878      0.27180281
H      -2.36634389     -0.58993301     -1.02410353
H      -3.32867870      0.55792307     -0.09553635
H      -2.66222681     -0.88592895      0.69410574
H      -1.40238621      1.26185411      1.04100857
H      -0.06365003     -0.93648348      1.04887726
H       1.23249724      1.76840927      0.17220551
H       0.34134952     -0.10199738     -1.90722285
H       2.57074646     -0.74155771      1.23364971
H       3.32891610      0.16636273     -0.11029278
