17
b3lypvtz=-191977.57555899
C      -2.91381035      0.42070325     -0.01982627
N      -1.96436129     -0.61139624     -0.38322468
C      -0.73546122     -0.38365807     -0.23814868
C       0.19291891      0.77662884      0.15717077
C       1.34401622     -0.12479235     -0.37876706
C       2.52271047     -0.41292965      0.52910408
N       0.34935682     -1.21404143     -0.48860519
H      -3.57887014      0.05016380      0.76468706
H      -3.54476512      0.66167155     -0.87910431
H      -2.45521664      1.35180944      0.33784049
H       0.24268078      0.97342821      1.22756810
H       0.02812736      1.70957765     -0.37755660
H       1.69247338      0.22172420     -1.35689380
H       3.13957463      0.47963048      0.65423775
H       2.17974795     -0.74116035      1.51136976
H       3.15499899     -1.19904577      0.11130756
H       0.34577925     -1.95851357     -1.17105895
