15
b3lypvtz=-240232.53999516
C      -0.83660484     -0.76167430     -0.13629881
C      -1.55257575      0.54194442      0.19142921
O      -0.76082521      1.54841091     -0.44290191
C       0.60801508      1.16110077     -0.34491196
C       0.63504790     -0.35193567     -0.01423577
O       1.40940517     -1.13833519     -0.89395576
O       1.12884114     -0.46794575      1.31062402
H      -1.08495895     -1.58695551      0.53089264
H      -1.03814568     -1.06052197     -1.16460732
H      -2.56110874      0.60864691     -0.21289866
H      -1.59316351      0.70813590      1.27486008
H       1.08969459      1.35915573     -1.30258655
H       1.11599276      1.71923801      0.44648394
H       2.33163757     -0.87616249     -0.78858293
H       1.10874849     -1.40310177      1.54668978
