15
b3lypvtz=-214528.0165107
C      -1.53237144      1.45819054     -0.23717903
C      -1.17038499      0.19771000      0.00885055
O      -2.04447975     -0.80262340      0.32111259
C       0.23478491     -0.31713982     -0.06222799
N       0.53638520     -1.53758771     -0.29196360
N       1.21155951      0.63660266      0.08863266
C       2.60760660      0.23971075      0.11051516
H      -2.56671513      1.77311396     -0.17973257
H      -0.80473957      2.19190670     -0.54333307
H      -2.94601387     -0.47303186      0.24167933
H      -0.30737865     -2.08558329     -0.42776773
H       0.95987842      1.43278349      0.64832345
H       2.86006269     -0.26630987     -0.81961841
H       2.83262764     -0.45009859      0.92940539
H       3.22276842      1.13272041      0.20875826
