10
b3lypvtz=-248805.88387747
N      -2.99623932      1.51239487      0.06754201
C      -2.11070123      0.80650981     -0.12579944
C      -1.02584970     -0.13354112     -0.38902363
O       0.21331040      0.52290666     -0.08618627
C       1.29662236     -0.24434255     -0.28956308
O       1.28817221     -1.37947449     -0.68565109
O       2.37903363      0.47499335      0.02510353
H      -1.14487050     -1.02372396      0.22965258
H      -1.04564304     -0.44299856     -1.43454706
H       3.14606517     -0.09282403     -0.12752756
