16
b3lypvtz=-202047.13388552
C       1.72354662     -1.66742961     -0.09705572
N       0.34787333     -1.23039497      0.00139475
C       0.02910704      0.00095724      0.09571051
C       0.97606102      1.15760482      0.23765222
N       0.80460304      2.33336574     -0.20655891
N      -1.29977758      0.37810342      0.02922356
C      -2.33705029     -0.63709113     -0.03049913
H       1.92732070     -2.38803307      0.69865171
H       1.85845894     -2.20266361     -1.04066391
H       2.48524029     -0.88230398     -0.05660705
H       1.89313709      0.95843667      0.78792602
H      -0.07498763      2.39526968     -0.72570583
H      -1.53206803      1.20870986      0.54973437
H      -3.30500554     -0.14215934     -0.09132065
H      -2.19524254     -1.25343803     -0.91619485
H      -2.32159946     -1.30357970      0.83711491
