13
b3lypvtz=-190462.22640562
C      -3.40683894      0.04614607      0.00021945
N      -2.07964459     -0.52534625      0.00025503
C      -1.08266099      0.25918356      0.00027540
C       0.27517989     -0.26078798      0.00009626
C       1.35209393      0.53860831     -0.00007884
C       2.68605866      0.05102634     -0.00023535
N       3.77883064     -0.31920632     -0.00036874
H      -3.41889366      1.14351266      0.00017432
H      -3.94889932     -0.31797475      0.87570575
H      -3.94888282     -0.31804867     -0.87524620
H      -1.19615151      1.35228700      0.00009117
H       0.37945868     -1.33829506      0.00012712
H       1.24099402      1.61719111     -0.00005139
