14
b3lypvtz=-255312.00385342
C      -0.79879781     -1.54104583      0.66800354
C      -0.78911239     -0.39644971     -0.35633853
O      -2.07878193      0.14545692     -0.51193239
C       0.17662978      0.69889957      0.06687750
O      -0.22923919      1.79425143      0.38910203
C       1.66903578      0.42971552      0.10809672
F       2.00993598     -0.78426124     -0.47066552
H       0.17271964     -2.02892960      0.73632933
H      -1.08888414     -1.16543785      1.65010195
H      -1.53783931     -2.27662385      0.35440428
H      -0.44308788     -0.79077924     -1.31883821
H      -2.04082548      1.05219181     -0.17061285
H       2.00338287      0.42853992      1.14833496
H       2.18250910      1.23035216     -0.42621382
