18
b3lypvtz=-181898.36688348
C      -2.19575807      0.79057226      0.16080346
C      -0.83484730      0.27214694     -0.28158752
C      -0.63908902     -1.24102640     -0.06306735
C       0.87603033     -1.41827620      0.15340887
C       1.30825593     -0.07263484      0.72732273
C       1.52404179      1.05562546     -0.20475885
N       0.24566983      0.93201795      0.50602549
H      -2.27750222      1.86343551     -0.01409090
H      -2.34122783      0.61137312      1.22738891
H      -2.99881024      0.29151042     -0.38612760
H      -0.69779329      0.50764624     -1.34291758
H      -1.02970906     -1.83659224     -0.88922389
H      -1.17704173     -1.54167131      0.83964885
H       1.39055452     -1.63602895     -0.78481233
H       1.09920837     -2.23510836      0.83898597
H       1.77728750     -0.05616808      1.70396488
H       1.53768082      0.83205739     -1.26755481
H       2.13262468      1.90416607      0.08533967
