13
b3lypvtz=-242055.73176104
O      -2.27815848     -0.76056709      0.08458888
C      -1.59838149      0.22465643     -0.06519879
C      -0.11123464      0.22032803     -0.00090380
C       0.52011615     -1.15237169      0.03527797
F       1.91136684     -1.03304560      0.03368539
C       0.55942997      1.36814688      0.68032506
N       0.51549417      1.30819843     -0.77688680
H      -2.04012488      1.22028670     -0.26542650
H       0.22383405     -1.69651486      0.93151564
H       0.23553866     -1.73357825     -0.84275251
H      -0.03808057      2.15177860      1.12958470
H       1.49118333      1.14247043      1.18277516
H       1.40769188      0.97739600     -1.13315637
