17
b3lypvtz=-191946.20186742
C      -2.20063968     -0.07918543      0.28054105
C      -1.08676186      0.21891430     -0.68806031
C       0.32805928     -0.03156882     -0.35186808
N      -0.33146877     -0.87947831     -1.33382520
C       1.56429947      0.82159360     -0.62372836
N       1.92183016      0.68845071      0.81700004
C       0.93824483     -0.41283842      0.99885582
H      -2.45179769      0.80524038      0.87026100
H      -1.92431890     -0.87570183      0.97433217
H      -3.10342411     -0.39213937     -0.24877796
H      -1.29301183      1.03478547     -1.37478654
H      -0.58700169     -1.77099129     -0.91679370
H       1.40289067      1.85101345     -0.94977994
H       2.25385639      0.32814073     -1.31661681
H       2.88284254      0.42190794      0.98659957
H       0.31167115     -0.30911437      1.88760605
H       1.37473007     -1.41902877      0.98904121
