18
b3lypvtz=-205215.16026236
C       1.71401415      1.49083512     -0.08547035
C       1.36309638      0.21598649      0.09635421
O       2.07570225     -0.79048750     -0.49945265
N       0.31427433     -0.24152762      0.90058838
C      -0.74478935     -1.06375294      0.29120956
C      -1.67587234     -0.32626558     -0.67771451
C      -2.52836735      0.75631746     -0.01661503
H       1.08620880      2.29276094      0.27090127
H       2.63671235      1.73510171     -0.58740514
H       2.03196464     -1.56382076      0.07622287
H      -0.05750309      0.50351486      1.47103552
H      -0.26633767     -1.89251854     -0.23061611
H      -1.32401151     -1.49902250      1.10901634
H      -1.07718783      0.11013729     -1.48110484
H      -2.32921178     -1.06852392     -1.14556630
H      -1.91355094      1.54426013      0.42297121
H      -3.15433821      0.33887141      0.77605653
H      -3.18819182      1.23412592     -0.74172996
