15
b3lypvtz=-214499.6740162
O       2.66360678      0.76369871     -0.78754265
N       1.94854295     -0.44603838     -0.60346332
C       0.74811050     -0.21453570     -0.27120883
C      -0.25498943     -1.31329954     -0.02082212
C      -1.58496658     -0.56661656     -0.17528758
N      -1.26726381      0.75468496      0.38007289
C       0.06563194      1.12135124     -0.11376837
H       3.53821276      0.44863879     -1.03471488
H      -0.13220125     -2.15423931     -0.69990025
H      -0.15016317     -1.67885658      1.00373106
H      -2.40070630     -1.03076217      0.37888957
H      -1.87000539     -0.53400743     -1.23832503
H      -1.96614990      1.44954807      0.15612170
H       0.59650135      1.76823882      0.58681754
H       0.06593956      1.63209508     -1.08879973
