13
b3lypvtz=-237076.64493268
N       1.25466930      1.31813624      1.20822309
C       1.03318863      0.21715043      0.61932463
O       1.96013720     -0.79434557      0.61498275
C      -0.22264872      0.00361869     -0.10960022
N      -1.30382195      0.93574027      0.04640641
C      -0.42666923     -0.97615557     -1.00943360
O      -1.57358403     -1.09713121     -1.69115175
H       2.15975551      1.30156775      1.67430523
H       1.53809221     -1.63251097      0.39692188
H      -0.94960285      1.88002098     -0.07167528
H      -1.66086661      0.90466787      0.99617914
H       0.30822401     -1.72132625     -1.28220917
H      -2.11687348     -0.33933265     -1.39217311
