12
b3lypvtz=-228827.40645569
C       2.08270523     -1.25919624      0.29045073
N       1.20799243     -0.71574947     -0.44039066
C       0.70750149      0.56445133     -0.09583441
N       1.40918924      1.62829290     -0.02370177
C      -0.74079362      0.64354998      0.10294051
C      -1.56213569     -0.38141038     -0.08381358
F      -2.88316215     -0.25978701      0.10713031
H       2.45686648     -0.80715123      1.21437034
H       2.49569590     -2.22188389     -0.00097112
H       2.39133595      1.43048486     -0.21256263
H      -1.12624628      1.60810686      0.40222783
H      -1.27620599     -1.37208271     -0.40670455
