17
b3lypvtz=-191960.3088577
C       2.74012915     -0.49230163     -0.26524972
C       1.55385189     -0.19050566      0.63910179
N       0.31470707     -0.10768145     -0.13256139
C      -0.04579560      1.19182002     -0.67158282
C      -0.80015327      0.59320987      0.47755152
C      -2.16034496      0.00519970      0.29791367
N      -2.44603268     -1.04365900     -0.34879610
H       3.65466761     -0.58603698      0.32204001
H       2.88969582      0.30427382     -0.99609936
H       2.58094751     -1.42382389     -0.80854064
H       1.73466332      0.73918529      1.20077518
H       1.42729296     -0.98978142      1.37239885
H      -0.49265096      1.19131353     -1.65797862
H       0.60220586      2.03553913     -0.45216750
H      -0.62733310      1.07128595      1.43935652
H      -2.97390904      0.55983237      0.77143713
H      -1.58156356     -1.45172563     -0.71985051
