9
b3lypvtz=-212231.75601385
C      -0.36200598      0.73678444     -0.11724667
C      -1.51712486      0.03777558     -0.04756291
O      -1.26865417     -1.24401129      0.26990091
N       0.08989170     -1.42702290      0.42117338
C       0.62191323     -0.24545003      0.18950899
C       2.03296047     -0.06237463      0.25982286
N       3.16676970      0.12988722      0.30571110
H      -0.21229112      1.77551889     -0.34635895
H      -2.55145897      0.29889271     -0.19113342
