15
b3lypvtz=-191219.20613165
N       2.40318191      0.02732358      0.05243771
C       0.98496422     -0.02444726      0.01760134
C       0.26537237     -1.16415629     -0.04365821
N      -1.11518560     -1.13032802     -0.26980197
C      -1.82479000      0.01286128      0.29680699
C      -1.07162503      1.26568607     -0.07490298
C       0.26291981      1.22828504     -0.15670275
H       2.81750470     -0.89161446      0.13173154
H       2.74716827      0.59883732      0.81468821
H       0.72887153     -2.14266532     -0.04668750
H      -1.57627758     -2.01200390     -0.11722140
H      -2.83767845      0.03036594     -0.10730572
H      -1.91445631     -0.05833458      1.39991739
H      -1.62335133      2.18245333     -0.23268202
H       0.83507848      2.11380328     -0.40588263
