19
b3lypvtz=-192732.34146297
C      -2.60311576     -0.16333617      0.70200456
C      -1.51022842     -0.67062721     -0.23261540
N      -0.24573905      0.05488952     -0.09771044
C      -0.33391957      1.43923993     -0.55064616
C       0.87552356     -0.63123100     -0.71583576
C       2.20092880     -0.35658287     -0.03141966
N       2.37743676      0.19344636      1.09157062
H      -3.47787249     -0.81196898      0.63484136
H      -2.92859055      0.84625234      0.45128404
H      -2.25262769     -0.16309003      1.73486731
H      -1.87595886     -0.64441541     -1.27434716
H      -1.30946477     -1.71712731      0.00250930
H       0.62722279      1.93356208     -0.41733688
H      -0.61335622      1.51191238     -1.61537350
H      -1.07014027      1.98771246      0.03366783
H       0.70981795     -1.71216568     -0.66841969
H       0.97896639     -0.39518369     -1.78959636
H       3.08021528     -0.69980887     -0.58303395
H       1.46380512      0.44400414      1.48380994
