12
b3lypvtz=-252151.74955165
N      -1.55645260     -1.48754684     -0.02304825
C      -1.13191768     -0.30815950     -0.00352616
F      -2.00066598      0.77410857      0.02996471
C       0.24093236      0.15622631     -0.00281650
O       0.50149557      1.51394074     -0.02331607
C       1.28315634     -0.69699170      0.01454900
N       2.58987561     -0.29396639     -0.04093264
H      -2.57034261     -1.53503873     -0.00350206
H      -0.33610876      1.98592011      0.02174901
H       1.08650443     -1.75772135      0.02743871
H       3.29048797     -0.92868733      0.29845942
H       2.77109034      0.68095510      0.13601783
