18
b3lypvtz=-181886.80688513
C      -2.90711232      0.10475671      0.36273453
C      -1.80177624     -0.00311340     -0.36685337
C      -0.43182419      0.01417090      0.17867363
C       0.71007021      0.71193819     -0.49844623
C       1.75783199      1.45658798      0.29512406
N       0.60209620     -0.74137160     -0.53703109
C       1.50589648     -1.57037943      0.24602672
H      -2.86922764      0.20418149      1.44142784
H      -3.88847883      0.09831446     -0.09180451
H      -1.86940162     -0.11172610     -1.44468514
H      -0.37069360      0.00159246      1.26575732
H       0.49937461      1.16196624     -1.46487929
H       2.72517641      1.43037232     -0.21234477
H       1.89128983      1.05502016      1.29839650
H       1.46794128      2.50423449      0.39524668
H       1.05339831     -2.55533480      0.36673007
H       2.44270944     -1.69641573     -0.29952224
H       1.73824969     -1.18069632      1.24478729
