12
b3lypvtz=-231241.33622387
C      -2.38801377      0.52483218     -0.31237633
C      -1.27377496     -0.19573746     -0.41634158
F      -1.31879957     -1.40106538     -1.02466541
C       0.03310895      0.18395127      0.06940229
C       1.14579171     -0.55588825     -0.04437518
C       2.42335855     -0.07280393      0.48592745
O       3.46435516     -0.68530525      0.41972172
H      -3.32547080      0.16221102     -0.70581976
H      -2.36242205      1.48861079      0.17183042
H       0.08113630      1.15046041      0.55975531
H       1.14102066     -1.52482007     -0.52600520
H       2.37980982      0.92555466      0.97014626
