14
b3lypvtz=-203684.48822498
C      -1.42308564     -0.69283702     -0.12858501
C      -1.26898339      0.77887747      0.09058816
C      -0.12794163      1.48020226      0.08879075
N       1.15582852      0.99753925     -0.02510710
C       1.56629581     -0.33164250     -0.02964938
C       0.84933544     -1.43885301      0.19908221
O      -0.46752949     -1.56123639      0.51443490
H      -1.39888875     -0.92650411     -1.19798160
H      -2.38821967     -1.02149072      0.25497244
H      -2.18538493      1.33780462      0.22227178
H      -0.16638580      2.55670306      0.19616965
H       1.88682886      1.68168006     -0.08326948
H       2.61586121     -0.46471653     -0.24921535
H       1.35226945     -2.39552641      0.14749804
