18
b3lypvtz=-181919.37989163
C       2.40493627      0.00620583     -0.25226142
C       1.01762164     -0.05239900      0.39684651
C       0.26190110      1.24360272      0.22029567
C      -1.03829871      1.28086450     -0.09247194
N      -1.82326068      0.15091277     -0.29321184
C      -1.28670437     -1.10544170      0.21718051
C       0.18749349     -1.21904455     -0.16668310
H       2.95018760     -0.92904624     -0.10508130
H       2.32260553      0.18648393     -1.32644107
H       3.00378697      0.81244078      0.17585213
H       1.17230038     -0.23127044      1.46917586
H       0.80292264      2.17587207      0.31586256
H      -1.55011247      2.22218489     -0.25042016
H      -2.80762234      0.28837181     -0.13192895
H      -1.85775884     -1.93094232     -0.21081483
H      -1.38326931     -1.16647489      1.31101938
H       0.58580359     -2.17393859      0.18297298
H       0.26276051     -1.21710260     -1.25770200
