11
b3lypvtz=-213006.30292407
C      -0.37780039      1.36972554     -0.53285357
C      -0.68441059      0.26007657      0.14650781
C       0.31576460     -0.52248886      0.89982889
N      -0.08295067     -1.56789205      1.51537009
C       1.69169000     -0.07817252      0.90959874
N       2.79993667      0.23225187      0.94932612
O      -1.93252341     -0.24425858      0.20549043
H      -1.13787702      1.91488466     -1.07186361
H       0.63581093      1.73689475     -0.55205462
H       0.65889952     -2.05504476      2.01103606
H      -1.88653964     -1.04597661      0.75677637
