20
b3lypvtz=-182663.98988736
C       3.01555076      0.14155395      0.00019992
C       1.60336207     -0.44565031     -0.00005531
C       0.52432842      0.63924877      0.00008001
C      -0.93854416      0.20581166     -0.00000188
N      -1.90452653      1.28948639     -0.00005000
C      -1.39345555     -1.01279616     -0.75578161
C      -1.39352892     -1.01277269      0.75576691
H       3.77278379     -0.64403986      0.00006963
H       3.18412548      0.76499019     -0.88070462
H       3.18398400      0.76456213      0.88143404
H       1.48445347     -1.08861464     -0.87569827
H       1.48430034     -1.08900476      0.87528068
H       0.67818730      1.28368459      0.87454643
H       0.67821631      1.28391464     -0.87421109
H      -1.77319738      1.87977492      0.81500802
H      -1.77305389      1.87983390     -0.81504193
H      -0.65709965     -1.62110287     -1.26132980
H      -2.34968510     -0.94369343     -1.25387374
H      -2.34980500     -0.94365201      1.25376754
H      -0.65721875     -1.62105542      1.26141207
