17
b3lypvtz=-191970.00325784
C      -2.09219788      0.94116486     -0.07614289
C      -1.17571401     -0.03216018     -0.00042507
C      -1.60012883     -1.47752169      0.05040571
C       0.27476411      0.23865409      0.01695494
C       0.82311579      1.64097606      0.07797241
N       1.04493363     -0.79271893     -0.01936023
N       2.40091577     -0.60558795      0.02517924
H      -3.14711091      0.70341113     -0.09605619
H      -1.83941790      1.98974637     -0.12997820
H      -2.68630699     -1.55652864      0.05039682
H      -1.20836700     -1.96864736      0.94201729
H      -1.20522539     -2.03142536     -0.80206670
H       1.25404192      1.94623688     -0.88176933
H       1.61842174      1.69608363      0.82518791
H       0.06601925      2.37148152      0.34267105
H       2.75543907      0.22653240     -0.43434131
H       2.87007064     -1.43746184     -0.29679247
