11
b3lypvtz=-267192.28395834
N       3.11776608      0.31749759     -0.20525515
N       2.18839584     -0.47422558      0.04239706
C       0.92648077      0.15889469      0.05574292
C      -0.15238417     -0.57747352      0.30359303
C      -1.54199769     -0.03804296      0.35966753
F      -2.34820942     -0.75788002     -0.48407839
F      -1.59515040      1.26689208     -0.03396257
H       3.98619709     -0.23456525     -0.19329436
H       0.89691888      1.22564795     -0.13895242
H      -0.04737320     -1.63829371      0.49365329
H      -1.98241979     -0.10071127      1.35888107
