12
b3lypvtz=-226212.71740582
N       1.91030840     -1.29239115      0.13677673
C       0.72487968     -1.08147367     -0.24500847
C      -0.03904253      0.19192578     -0.04363640
C      -1.51490601      0.10108620      0.21053014
O      -2.18554759     -0.85972674     -0.05758034
C       0.43109916      1.45100394     -0.67706159
O       0.61873006      1.21976553      0.70741691
H       2.27830505     -0.47060849      0.62517954
H       0.17561567     -1.86954317     -0.75726347
H      -1.94140170      1.01675518      0.66787625
H      -0.28370811      2.22841562     -0.93009448
H       1.32331091      1.39791698     -1.29187582
