14
b3lypvtz=-180393.39844364
C      -1.83573890      1.33008743     -0.12290132
C      -1.42796441      0.05960707     -0.05451635
C      -2.39037927     -1.08682472      0.12206298
C      -0.01454129     -0.31357916     -0.18697121
C       1.02843189      0.41811381      0.23139379
C       2.37731619      0.00771129      0.05345221
N       3.48111935     -0.30335598     -0.07549468
H      -2.88102327      1.58910474     -0.01974654
H      -1.14650607      2.14298567     -0.30742410
H      -3.41766070     -0.73437718      0.19586129
H      -2.32568967     -1.77912676     -0.72171382
H      -2.15753901     -1.66152859      1.02173120
H       0.18787395     -1.28006383     -0.63803979
H       0.88169523      1.36253721      0.74099934
