11
b3lypvtz=-213039.9967629
C       0.16824983     -1.10018494      0.24305027
C      -1.19676981     -0.90714000      0.18924824
N      -1.75960683      0.28088528     -0.07645467
C      -0.91211786      1.27828353     -0.28846743
N       0.42128008      1.21680408     -0.26380405
C       0.95073987      0.03055644      0.00124576
O       2.28931319     -0.06925313      0.03452147
H       0.61538944     -2.05910551      0.45730165
H      -1.87633416     -1.73342461      0.36515914
H      -1.34104413      2.25009933     -0.50552150
H       2.64090037      0.81247952     -0.15627888
