15
b3lypvtz=-214505.81652446
C      -1.75988127      0.23879149      0.29193718
C      -1.54091820      0.43461576     -1.17290866
N      -0.69103778     -0.45460325     -0.40936412
C       0.66325483     -0.20875590     -0.18822932
N       1.51172235      0.19456418     -1.04396729
C       1.16812226     -0.57463780      1.19229577
O       2.55305660     -0.39050604      1.30874287
H      -1.48840742      1.06126777      0.94372315
H      -2.57403396     -0.38136922      0.64438595
H      -2.19955131     -0.04001310     -1.88878343
H      -1.12035713      1.38378448     -1.48783160
H       1.09820050      0.40171490     -1.94990203
H       0.64099572      0.03639433      1.93659911
H       0.89381981     -1.61828752      1.38940778
H       2.84501499     -0.08296007      0.43389464
