16
b3lypvtz=-204428.02706831
C      -1.86445529     -0.70137869      1.15033020
C      -0.96402238     -1.07457298     -0.03262805
C       0.29260789     -0.30778999     -0.00746800
C       1.30937275      0.33708130     -0.02201219
C       2.53726505      1.13018955     -0.00466371
O       2.35885043      2.45182881      0.50056633
N      -1.72370901     -0.93851636     -1.28634968
H      -2.15023270      0.35065580      1.09446189
H      -2.76831291     -1.30860209      1.12352832
H      -1.35002876     -0.86188666      2.09732978
H      -0.70828826     -2.13414124      0.06086161
H       2.91766775      1.25239695     -1.02050302
H       3.30708403      0.59366857      0.56408637
H       1.90191578      2.38789107      1.34547446
H      -1.95123810      0.03931631     -1.43685690
H      -1.14447628     -1.21614034     -2.07082528
