13
b3lypvtz=-236999.26527736
C      -2.68364492     -0.09009257      0.02975097
O      -1.98518934      1.16145566      0.10630872
C      -0.65976895      1.09755496      0.26205826
N      -0.03647025     -0.00734894      0.33970563
O       1.34238568      0.24809457      0.50062353
N       1.99848189     -0.97525573      0.58270138
C       3.24648688     -0.80613507      0.72838572
H      -2.53283439     -0.66709159      0.94214096
H      -2.32777579     -0.67380736     -0.81914630
H      -3.73131559      0.16768633     -0.09338201
H      -0.19183347      2.07554780      0.31298445
H       3.84495747     -1.70334547      0.80230298
H       3.71652078      0.17283742      0.77946571
