17
b3lypvtz=-191970.35445607
C       3.26762982      0.34920683     -0.02213138
N       2.09127938     -0.48925657     -0.09481889
C       0.95986552      0.06256870      0.04327939
N      -0.22496595     -0.62438119     -0.08284304
C      -1.43703909     -0.14139736      0.50654301
C      -2.72125210     -0.38614996     -0.23316783
C      -2.15266940      1.00442478     -0.15919188
H       3.82074424      0.30045837     -0.96394590
H       3.04526397      1.40572950      0.18827570
H       3.93921461     -0.02019727      0.75688477
H       0.82482751      1.13329211      0.24084714
H      -0.11153799     -1.62675914     -0.13564628
H      -1.49483271     -0.17665660      1.59168683
H      -3.60375311     -0.61707419      0.34618468
H      -2.64781530     -0.90211009     -1.18003280
H      -1.70528422      1.40634769     -1.05680730
H      -2.64252819      1.73098239      0.47335580
