14
b3lypvtz=-203686.35036562
C      -1.37080919     -0.88530674      0.06217907
C      -0.00786018     -0.52502924     -0.48637021
C      -1.10208641      0.51007331     -0.39382864
O      -1.04408851      1.48145542      0.61488231
C       1.17762610     -0.44628007      0.45770133
C       2.18146439      0.51416095     -0.00224367
N       2.94711200      1.28522219     -0.38088658
H      -1.45165536     -1.02540823      1.13190829
H      -2.02160290     -1.51360077     -0.52885507
H       0.23323710     -0.88192265     -1.47953639
H      -1.55749118      0.84063790     -1.32140572
H      -0.48512813      2.20633729      0.31310969
H       1.65334324     -1.42381828      0.56324939
H       0.84793903     -0.13652108      1.45009621
