16
b3lypvtz=-181138.22999414
C       1.51251740      0.33777221      0.63919738
C       1.58557964     -0.53990071     -0.59249286
C       0.37785024     -0.87699451     -1.04021510
C      -0.71927678     -0.27233006     -0.22553366
C       0.01865580      0.55082250      0.83800188
C      -0.76437082      1.22947906     -0.26273461
N      -1.92777711     -1.03482547     -0.06938064
H       1.97085157     -0.15107762      1.50500225
H       2.05301417      1.27929870      0.49582623
H       2.52241017     -0.81619152     -1.05694652
H       0.16538412     -1.49625092     -1.90113833
H      -0.37970454      0.61958647      1.84091391
H      -1.69303445      1.70099280      0.03700900
H      -0.23558117      1.74511108     -1.05447418
H      -2.68895346     -0.46623255      0.27573565
H      -1.79756479     -1.80925946      0.57122960
