8
b3lypvtz=-222308.90775095
C      -1.48564449     -0.31744658      0.13617674
N      -1.39038828      0.82126215     -0.45756812
N      -0.03856751      1.14373105     -0.46301421
C       0.56029234      0.16424487      0.13140830
O      -0.29432139     -0.81120231      0.54523539
C       1.94644229      0.01167721      0.38293988
N       3.07166735     -0.11468027      0.58847428
H      -2.36948028     -0.89758612      0.33592907
