17
b3lypvtz=-191953.67267519
N       3.43432501      0.07666451      0.28288126
N       2.14352501      0.27576917      0.72420076
C       1.26764048      0.64843611     -0.11618700
C      -0.13685320      0.95808773      0.30528024
C      -1.17244077      0.09454143     -0.39171213
C      -2.49979897     -0.16713989      0.26483658
C      -1.48854247     -1.27805182      0.13389075
H       3.89515439     -0.59538573      0.87741407
H       3.50676769     -0.18895249     -0.69694090
H       1.51375693      0.75487251     -1.18089526
H      -0.20322465      0.82746268      1.38656441
H      -0.35391023      2.01216783      0.09406572
H      -1.19620329      0.20428884     -1.47024912
H      -2.66434491      0.25125424      1.24900706
H      -3.38486355     -0.20345363     -0.35525797
H      -0.97236010     -1.60008642      1.02843320
H      -1.68892737     -2.07067507     -0.57373166
