19
b3lypvtz=-195149.76322725
C       2.41285099     -0.08378241     -0.00100451
C       0.93469296     -0.04735872      0.33816465
C       0.28114974      1.32506186      0.06458303
C      -1.18670331      1.15923160     -0.36773476
C      -1.81314066     -0.03495855      0.35344808
C      -1.04334233     -1.31923867     -0.01044133
O       0.29015512     -1.05585599     -0.44025345
H       2.84431125     -1.05344955      0.24742210
H       2.55547640      0.09334188     -1.06834606
H       2.95089609      0.68899515      0.55107125
H       0.81013048     -0.29953011      1.40132781
H       0.34451369      1.93551455      0.96965284
H       0.83924618      1.85331501     -0.71195545
H      -1.23204823      0.98830518     -1.44538225
H      -1.74993050      2.07241321     -0.16947610
H      -1.78009765      0.13663618      1.43268867
H      -2.86573966     -0.15117850      0.08950552
H      -1.51831855     -1.82903046     -0.84950974
H      -1.02806202     -2.01396865      0.83998971
