12
b3lypvtz=-223777.28409906
C       0.17261347      0.03898466      0.15444813
C       1.24180394     -0.28904665     -0.58735963
N       2.59842150     -0.25411341     -0.16722114
N       2.78300927      0.11661294      1.00801790
C      -1.17177534     -0.02645051     -0.35349459
N      -2.14538222      0.30140550      0.41101838
O      -3.36512232      0.17746846     -0.24382654
H       0.30830656      0.36756006      1.17681176
H       1.13821399     -0.62046843     -1.61233392
H       3.79847693      0.09139945      1.16401048
H      -1.35658184     -0.35150718     -1.37640662
H      -4.00198396      0.44815513      0.42633580
