15
b3lypvtz=-212099.03910299
C      -2.50110883      0.07261357      0.37652208
C      -1.47345844     -0.76980611     -0.37702741
N      -0.17288409     -0.80971867      0.26658707
N       0.75392733      0.05057019     -0.07543624
N       1.78315947      0.02805767      0.65708134
C       2.75122405      0.94780508      0.21858855
N       3.86783255      1.11997184      0.79009010
H      -2.65915200     -0.30789155      1.38699144
H      -2.16965633      1.10851333      0.44922733
H      -3.45995798      0.05272544     -0.14403509
H      -1.82458342     -1.79804907     -0.48187735
H      -1.31114482     -0.37484571     -1.37868501
H      -0.01475541     -1.34386826      1.11678080
H       2.49038449      1.53056740     -0.66635493
H       3.94017345      0.49335486      1.59494274
