17
b3lypvtz=-194350.62157893
C      -2.23541076     -1.56717447     -0.21949876
C      -1.58988103     -0.60886285      0.10313880
C      -0.81818238      0.56973867      0.50076674
C      -0.94904669      1.70789949     -0.52631688
C       0.64841497      0.21734049      0.78201536
O       1.28073651     -0.17618675     -0.41516088
C       2.62337085     -0.56667105     -0.23032450
H      -2.80102688     -2.41680801     -0.50917188
H      -1.22701808      0.92065426      1.45506874
H      -0.41470164      2.59279927     -0.17600796
H      -0.52785117      1.40673161     -1.48305631
H      -1.99528738      1.97230682     -0.67435501
H       0.70049791     -0.58864822      1.52540523
H       1.15051580      1.09974820      1.20548528
H       2.70328909     -1.42086613      0.45368766
H       3.01417883     -0.85585006     -1.20415473
H       3.23261606      0.25498872      0.16813011
