16
b3lypvtz=-204366.54731706
N       0.93885000      0.54934832      0.02208248
C       0.58478917     -0.42115428      1.04326959
C      -0.94341061     -0.24441365      1.52616623
C      -1.23434657     -1.20611241      0.33525908
O      -1.82424440     -2.50883176     -0.07763346
C      -0.45117366     -2.83316408     -0.55175509
C       0.07777619     -1.83043228      0.52136696
H       1.00185033      1.47824781      0.42281639
H       1.84869016      0.33342456     -0.36859893
H       1.30572067     -0.49730068      1.86308713
H      -1.08212239     -0.68087628      2.51262157
H      -1.36131107      0.76163547      1.48681224
H      -1.26282259     -0.57878608     -0.55751916
H      -0.32712374     -2.52321676     -1.59107101
H      -0.22451845     -3.88952351     -0.41917115
H       0.01599697     -2.41064439      1.44526714
