12
b3lypvtz=-226246.49042379
C      -1.31796761     -1.54607435      0.25679438
C      -0.98331046     -0.11245611     -0.02317044
O      -1.69572006      0.64647868     -0.63296567
C       0.36169046      0.45561632      0.51610514
O       0.49732977      1.80221115      0.17924137
C       1.48428879     -0.35314570      0.00689808
N       2.34227342     -1.00960077     -0.38799533
H      -0.62929563     -2.19575994     -0.28786066
H      -2.33837187     -1.75357192     -0.05378430
H      -1.19454412     -1.77075475      1.31805858
H       0.34643086      0.33742869      1.60809253
H      -0.26806456      2.00773071     -0.38574069
