16
b3lypvtz=-204442.05465354
C      -2.52104281     -0.41248989      0.22745814
C      -1.04030615     -0.65439652      0.28866386
C      -0.07404225      0.19355720     -0.42733470
O      -0.41145939     -1.12018714     -0.91726372
C       1.32600886      0.39337510      0.03811029
C       1.87763849      1.61316040      0.02803917
N       1.92719889     -0.75905851      0.53040623
H      -3.06549347     -1.35817646      0.26122940
H      -2.79357511      0.10633334     -0.69153597
H      -2.84297119      0.19072962      1.07889513
H      -0.67717487     -1.15752240      1.18038501
H      -0.46933028      1.00647117     -1.02750918
H       2.88137872      1.79009296      0.39022510
H       1.31660971      2.46614173     -0.32251890
H       1.64133425     -1.59681262      0.04354556
H       2.92522662     -0.70121800      0.65489111
