12
b3lypvtz=-200531.30870975
N      -2.34874812      0.14098071     -0.00024131
C      -1.06379491      0.06725878      0.00001495
C      -0.22673903      1.25284972      0.00026899
C       1.11497562      1.12245258      0.00019172
N       1.70062305     -0.11202936     -0.00029827
H       2.69832458     -0.22431135      0.00065059
N       1.00848957     -1.26489508      0.00011889
C      -0.28030010     -1.17605517      0.00024396
H      -2.76142497     -0.79186920     -0.00034333
H      -0.69220556      2.22680916      0.00045211
H       1.79783695      1.96054422      0.00028164
H      -0.80680808     -2.12475100      0.00038005
