14
b3lypvtz=-224579.07875704
C       2.15887221     -0.57209065      0.27856654
N       1.50592444      0.47642731     -0.03769100
N       0.14635019      0.53539735     -0.07954327
C      -0.37676030      1.90026130     -0.15912796
C      -0.72228289     -0.54957355     -0.04399184
N      -0.53930548     -1.76482632     -0.36439290
O      -1.94492784     -0.15511091      0.39430300
H       3.23557705     -0.46209465      0.30052327
H       1.73199796     -1.52742012      0.56569193
H       0.41084048      2.51602245     -0.58325100
H      -1.25650172      1.93190291     -0.79668822
H      -0.64425678      2.28604876      0.82614243
H       0.36950392     -1.93564114     -0.77369045
H      -2.50888226     -0.93633274      0.30802748
