17
b3lypvtz=-217686.42778577
C      -1.15164036      1.40232559      0.05404157
C      -0.83612521     -0.07863845      0.24637674
C      -1.79312643     -0.97840588     -0.51806433
O       0.48027675     -0.40649501     -0.21542854
C       1.54001103      0.05920364      0.58261539
C       2.81799068     -0.61607989      0.12972536
O       3.90468851     -0.32948324      0.55624067
H      -0.47432984      2.04037088      0.62260017
H      -2.16673669      1.61923196      0.39042015
H      -1.07347787      1.67062328     -1.00102355
H      -0.88976882     -0.32065496      1.31740308
H      -1.73834111     -0.76710576     -1.58718128
H      -2.81935052     -0.81581008     -0.18674003
H      -1.53936865     -2.02664055     -0.36253485
H       1.38590012     -0.18644757      1.64435499
H       1.68348061      1.14463771      0.51815799
H       2.66971779     -1.41053167     -0.62906353
