16
b3lypvtz=-181120.91601001
C      -3.66938692     -0.14398900     -0.00016958
C      -2.47996021     -0.30380612      0.00001322
C      -1.03234189     -0.47758597      0.00002021
C      -0.28152024      0.86016225      0.00002848
C       1.21285142      0.72477111     -0.00002376
N       1.80024796     -0.39099885      0.00002727
C       3.26060662     -0.40211371      0.00000519
H      -4.72223416     -0.01233012     -0.00009239
H      -0.72845304     -1.06408926      0.86937246
H      -0.72846300     -1.06407017     -0.86934903
H      -0.57720112      1.45715132     -0.86906937
H      -0.57715288      1.45712129      0.86916403
H       1.76633606      1.67693377     -0.00011300
H       3.66413820      0.09634686      0.88605255
H       3.66426155      0.09807937     -0.88501502
H       3.61635665     -1.43065977     -0.00093027
