15
b3lypvtz=-216906.3386805
C       0.61280425      0.75743726      0.69885588
C       1.70131169     -0.19523319      0.17442769
O       1.01082061     -1.32302824     -0.39322329
C      -0.23802322     -0.87359603     -0.85337105
C      -0.59236377      0.40578669     -0.17868627
C      -1.35924273     -0.84995332      0.16280827
O      -1.21627596      1.42482596     -0.90831835
H       0.88036743      1.80269631      0.55048140
H       0.41147797      0.59903403      1.75989642
H       2.37144898     -0.57350719      0.94495022
H       2.29920862      0.29510900     -0.60173820
H      -0.45223654     -1.05706095     -1.89809784
H      -1.18537782     -1.32926455      1.11718427
H      -2.36546866     -0.92411054     -0.22919017
H      -1.87845086      1.84086470     -0.34597896
