16
b3lypvtz=-204419.63708466
C       2.71588511     -0.73914114     -0.00474563
N       1.82791019      0.15111017     -0.15116725
O       0.57314680     -0.33257912      0.23527047
C      -0.45181470      0.59611465      0.14207671
C      -0.30790139      1.86377783     -0.22692880
C      -1.74291937     -0.06663632      0.52353974
C      -2.19455111     -1.15029749     -0.46501096
H       3.72450194     -0.46275666     -0.28124504
H       2.50253002     -1.73503810      0.37515122
H       0.64800136      2.28018689     -0.49694729
H      -1.18007886      2.49874058     -0.26016645
H      -2.50618508      0.70710402      0.60469936
H      -1.62765038     -0.50875703      1.51772671
H      -3.12842631     -1.60571592     -0.13247553
H      -1.44741464     -1.93838072     -0.55303514
H      -2.35778657     -0.72672163     -1.45696412
