14
b3lypvtz=-227012.74151445
C      -2.95202218     -0.47733209      0.00006244
C      -1.74097084      0.42657913      0.00000456
O      -0.55942748     -0.41605306     -0.00004512
C       0.62234071      0.21168463     -0.00005524
O       0.77514800      1.40796917      0.00000093
C       1.76225208     -0.77833625     -0.00000564
N       2.97296818     -0.42269157      0.00005903
H      -2.96569546     -1.11400860     -0.88450534
H      -3.85958167      0.12780297      0.00010048
H      -2.96561588     -1.11400008      0.88463764
H      -1.70446883      1.06791547      0.88068767
H      -1.70455083      1.06791026     -0.88068580
H       1.49644986     -1.83339693     -0.00004427
H       3.02380933      0.60204195      0.00006867
