12
b3lypvtz=-202901.67023788
C      -2.74894070      0.00153391     -0.35802614
N      -1.36894476      0.35968227     -0.59512989
C      -0.47093213     -0.34508501     -0.03937046
C       0.91643096     -0.06417219     -0.21819080
C       2.10661426      0.10835634     -0.31985022
C       3.51278470      0.37715040     -0.49006622
O       4.39268897     -0.26626742      0.03267313
H      -3.26417741      0.86106119      0.07598456
H      -2.87806995     -0.86806590      0.29831448
H      -3.22876310     -0.19679421     -1.31882938
H      -0.70636418     -1.20186219      0.60362317
H       3.73767335      1.23446283     -1.14864010
