17
b3lypvtz=-194373.75230604
C       2.45110965     -0.72232434     -0.14740239
C       1.37089666     -0.05328849     -0.53032091
C       0.26894617      0.39964712      0.39447106
O       0.16435835      1.82420818      0.36357242
C      -1.06481765     -0.21122530      0.01124711
C      -2.03701221      0.51318784     -0.53247751
C      -1.20033206     -1.68150307      0.29505296
H       3.22073291     -1.01200342     -0.85085355
H       2.60193368     -1.01010338      0.88684527
H       1.23338341      0.22761298     -1.57024828
H       0.51168130      0.06696251      1.41390891
H       1.04963169      2.18427894      0.47485162
H      -2.98306430      0.06026949     -0.80080005
H      -1.91749090      1.57139704     -0.71041010
H      -2.17656715     -2.05097383     -0.01511795
H      -1.08220907     -1.88715130      1.36325688
H      -0.43311550     -2.26268595     -0.22229049
