12
b3lypvtz=-226255.92984173
N       2.80366434     -1.06593989     -0.32485031
C       2.13713040     -0.16451578     -0.06973957
C       1.29237822      0.98609763      0.24023326
C      -0.15292064      0.80987141     -0.20912395
O      -0.72054812     -0.25896752      0.57006317
C      -1.99014189     -0.58914967      0.27646292
O      -2.67309923     -0.06093978     -0.55379377
H       1.70966490      1.86658461     -0.25335165
H       1.32649706      1.16900217      1.31581517
H      -0.71585816      1.72617805     -0.03222854
H      -0.21987216      0.56405597     -1.26787847
H      -2.30108272     -1.41945119      0.92161574
