14
b3lypvtz=-226966.45735064
O       2.35226504      0.38768086      1.56006225
C       1.13013975      0.04513459      1.03990328
C       0.70060068      0.42137245     -0.16348169
O       1.52817086      1.20314751     -0.94131861
N      -0.53123617      0.12941322     -0.79756909
C      -1.77353264      0.04694224     -0.02379336
C      -1.17801166     -1.17374322     -0.61804350
H       2.81051879      0.92947757      0.90591410
H       0.54288737     -0.56559502      1.70672417
H       1.05031077      1.36895538     -1.76212759
H      -1.69779511      0.17791993      1.04839937
H      -2.63591767      0.51158233     -0.48601436
H      -0.69475692     -1.87790235      0.04762528
H      -1.60354308     -1.60448551     -1.51618024
