20
b3lypvtz=-182654.34465259
C       1.96940121      0.96422104     -0.60157692
C       1.54203593     -0.05827179      0.42449963
C       1.06152901     -1.41967407     -0.01332476
C       0.09593843     -0.45297801      0.61462557
N      -0.92482667      0.13499638     -0.20673125
C      -1.40524900      1.39519663      0.34190537
C      -2.01962488     -0.78651696     -0.47391689
H       1.98416270      1.97143231     -0.17856607
H       2.97543339      0.74706947     -0.96752223
H       1.28982926      0.96750651     -1.45270020
H       2.12520702     -0.04529885      1.33811339
H       0.96070985     -1.57595180     -1.07943897
H       1.36108902     -2.29466560      0.54685143
H      -0.20157939     -0.67551925      1.64383822
H      -2.11478815      1.85257287     -0.34930706
H      -1.91095173      1.27176573      1.31523806
H      -0.57103276      2.08182311      0.47976523
H      -1.63408104     -1.69678553     -0.93168562
H      -2.57376652     -1.07059409      0.43735482
H      -2.72644969     -0.32688008     -1.16656374
