13
b3lypvtz=-216146.84941858
C      -2.35911897     -0.07217295     -0.51604004
C      -1.44284166     -0.69910415      0.20864399
C      -0.19067048     -0.06596004      0.71695819
O      -0.01083699      1.32640537      0.35731002
C       1.21102231      1.08934751     -0.38096326
C       1.11330387     -0.39556158     -0.04437945
O       1.75430849     -1.37476177     -0.25964084
H      -3.24735000     -0.58532399     -0.85798451
H      -2.24920438      0.97266838     -0.77268460
H      -1.55885515     -1.74522872      0.47282626
H      -0.08529152     -0.21612721      1.79867262
H       2.07435230      1.60449768      0.04846030
H       1.12026119      1.33607346     -1.44199769
