13
b3lypvtz=-213763.15292507
N      -2.87899844     -0.07849822      0.01062215
C      -1.63646647      0.22521866      0.02808842
C      -0.54117312     -0.72717820     -0.02406341
C       0.78935465     -0.46602428     -0.00596858
N       1.74825024     -1.46585188      0.05642950
C       1.39743413      0.89771494      0.03251246
O       0.82282483      1.94954123     -0.08253616
H      -3.00299921     -1.09302310     -0.04825614
H      -1.37987432      1.27790569      0.08289578
H      -0.84061458     -1.77317756     -0.05734826
H       1.44201253     -2.40344574     -0.14556677
H       2.65499308     -1.25327364     -0.32831574
H       2.49913167      0.87529012      0.17697777
