16
b3lypvtz=-181123.04224429
C      -3.01710636     -0.56436116     -0.03566032
C      -2.01408744      0.10093712     -0.06502317
C      -0.86537200      0.93365214     -0.10789477
C       0.40182562      0.53202634      0.08164410
C       1.53963726      1.50501584      0.01073318
C       0.75281950     -0.89752996      0.41226332
N       1.89034074     -1.38680250     -0.38402344
H      -3.89783634     -1.15562648     -0.01112195
H      -1.05674854      1.98306901     -0.30876934
H       2.10560481      1.51523109      0.94839174
H       2.23653506      1.21631076     -0.77948364
H       1.19302570      2.51814369     -0.18763520
H       0.93314560     -0.95830278      1.49756651
H      -0.10621586     -1.53262260      0.20404465
H       1.90313877     -2.39865237     -0.37608780
H       2.77084449     -1.08623212      0.01608515
