16
b3lypvtz=-202051.94248435
C      -2.03719066     -0.66239268      0.19355067
C      -1.61694812      0.64144513     -0.42976258
C      -0.70850398     -0.06578338      0.54795373
N       0.46226787     -0.73288322      0.05427296
C       1.70340018     -0.10539134     -0.05328269
N       2.83944576     -0.68985871     -0.11424248
N       1.64172896      1.27844942     -0.08378287
H      -2.03174219     -1.53761529     -0.44100555
H      -2.81419486     -0.65121354      0.94432301
H      -2.10600904      1.54941317     -0.10516783
H      -1.33194492      0.61738382     -1.47231144
H      -0.62375098      0.38552444      1.53201712
H       0.53556778     -1.70444780      0.31186798
H       2.75288039     -1.69478935      0.00682788
H       0.82319859      1.68451908     -0.50662050
H       2.51179521      1.68764026     -0.38463742
