15
b3lypvtz=-212129.57530159
N      -3.08012174     -0.30688113     -0.02052923
C      -1.81062114      0.18564147      0.12321771
N      -0.78251459     -0.52658628     -0.12660363
C       0.49160403      0.03081902     -0.07415356
N       0.63315596      1.43145911     -0.01461967
C       1.56087717     -0.78475511     -0.01818854
N       2.88098233     -0.23974774      0.06183880
H      -3.81915629      0.13535269      0.49754074
H      -3.15669061     -1.30564276     -0.13502907
H      -1.77038697      1.22822947      0.44524544
H       0.05881185      1.90543248     -0.70146169
H       1.60837239      1.67560516     -0.14836219
H       1.39768166     -1.85545038     -0.00428665
H       3.19777749     -0.13269574      1.02038436
H       3.55591046     -0.82852028     -0.40836782
