15
b3lypvtz=-191226.00658987
C      -0.77397614     -1.00593444      0.05512457
C       0.57350699     -1.66813105      0.18600687
N       1.71069066     -1.11910758      0.15652459
C       1.80510284      0.32383226     -0.01725800
C       0.51452228      1.08266162     -0.12147689
C      -0.67667653      0.48279264     -0.10150138
N      -1.90094690      1.12793692     -0.30233328
H      -1.38258253     -1.26285932      0.93372407
H      -1.30990435     -1.44213669     -0.79738215
H       0.55257890     -2.75167325      0.31710561
H       2.40895880      0.70094842      0.81700265
H       2.42959021      0.49171722     -0.90377044
H       0.58159778      2.16040503     -0.23303923
H      -1.86335165      2.13329059     -0.21923079
H      -2.66911035      0.74625767      0.23050376
