17
b3lypvtz=-194366.50622197
C      -0.18054702      2.05961607      0.09448242
C       0.00751002      0.75469082     -0.00143618
C      -0.85996480     -0.42456360     -0.41689698
C      -2.33383461     -0.42853860     -0.04762879
C       0.12606477     -1.34022754      0.37384646
C       1.13336699     -0.15449131      0.45899011
O       2.17706850     -0.19181967     -0.51001414
H       0.58506812      2.70942729      0.50025557
H      -1.10100393      2.52881830     -0.23177378
H      -0.74548662     -0.60482410     -1.48962782
H      -2.46943574     -0.25331884      1.02155497
H      -2.79712511     -1.38572283     -0.29676983
H      -2.87834359      0.35065565     -0.58486500
H      -0.26485820     -1.61931956      1.35344860
H       0.49064430     -2.23008153     -0.13858965
H       1.53946587      0.05793798      1.45306557
H       2.80166805     -0.87680452     -0.24936253
