13
b3lypvtz=-213774.2077532
C      -2.67187009     -0.15863543     -0.01087511
C      -1.42495486     -0.59731054     -0.16329107
C      -0.26743417      0.31647209      0.00214309
O      -0.39877163      1.51574904      0.15594681
C       1.13768534     -0.28345721     -0.00295173
N       1.41781248     -1.51798354      0.18357923
N       2.10090035      0.65506576     -0.20431542
H      -3.52313657     -0.81145966     -0.14662123
H      -2.86046961      0.87379144      0.25474996
H      -1.23450310     -1.62598725     -0.43669378
H       0.58121206     -2.07950891      0.29288503
H       1.83202527      1.61667140     -0.08084051
H       3.05111054      0.39146182     -0.00898227
