18
b3lypvtz=-202820.66188352
C      -1.18702140      1.93364858     -0.03433732
C      -0.68893994      0.52212199      0.27778972
C      -1.69087474     -0.53134124     -0.20670894
N      -1.24804462     -1.87679216      0.16351428
N       0.59304810      0.29971858     -0.37542626
C       1.59464000      0.02178468      0.34774632
N       2.83110624     -0.28222075     -0.17047911
H      -0.49054410      2.68078155      0.34740980
H      -2.16337701      2.11239114      0.42077485
H      -1.27382139      2.07759579     -1.11245361
H      -0.59639049      0.40419028      1.36796299
H      -2.65223450     -0.34437820      0.27747622
H      -1.83392827     -0.39263351     -1.28763674
H      -0.41181727     -2.11005699     -0.35986909
H      -1.95039568     -2.56130057     -0.08976406
H       1.54923530     -0.04405049      1.44106564
H       3.62935819     -0.13992751      0.42381954
H       2.96763959     -0.04645216     -1.14115223
