19
b3lypvtz=-195152.50878828
C       2.54231222     -0.48492241      0.07167288
C       1.14222324     -0.12369609     -0.41201327
C       0.64247166      1.25039999      0.04834591
O      -0.77046537      1.18616583     -0.05571444
C      -1.16525240     -0.10756438      0.42308792
C      -2.49507726     -0.47453497     -0.20467205
C       0.01521890     -1.05576988      0.09250014
H       2.83954805     -1.47456278     -0.27977327
H       2.59012084     -0.49185210      1.16337455
H       3.28563479      0.22869732     -0.29073629
H       1.13354320     -0.12654857     -1.50458405
H       0.99027787      2.07733662     -0.57049985
H       0.94750965      1.44254269      1.08871055
H      -1.28444546     -0.04646297      1.51348776
H      -2.84971152     -1.43149001      0.18264959
H      -2.39545444     -0.55361106     -1.28861506
H      -3.24621137      0.28411164      0.01727181
H       0.33008750     -1.60450792      0.98193135
H      -0.26311009     -1.79205194     -0.66230216
