15
b3lypvtz=-214489.69185277
C      -2.52238931      0.22722260     -0.24739974
C      -1.45053189     -0.67359818      0.38398400
C      -0.08264083     -0.40769870     -0.15537422
C       0.96100955     -0.01495272      0.57526804
N       2.20040290      0.21482376     -0.04043370
N       3.08755580      0.57322852      0.74165307
O       4.27717949      0.78647753      0.09849021
H      -3.51169517     -0.01905521      0.14028252
H      -2.54839921      0.10695248     -1.33200466
H      -2.32498334      1.27831529     -0.03312219
H      -1.45178600     -0.55119869      1.46919976
H      -1.71147141     -1.71907031      0.18662130
H       0.06769501     -0.53285430     -1.22340128
H       0.90382931      0.13920442      1.64875180
H       4.10612512      0.59220352     -0.84441492
