17
b3lypvtz=-217689.14058453
C       1.91727549     -0.73604816      0.39561194
C       0.99764169      0.12115476     -0.45752775
C      -0.29460113     -0.58579592     -0.93081362
C      -1.39503937      0.01536723     -0.05890042
O      -1.48917247     -0.77638279      1.12607309
C      -0.83762123      1.41162185      0.20330187
O       0.56569048      1.25369496      0.32592652
H       2.74342900     -0.13605835      0.77844867
H       2.33434490     -1.55490479     -0.19449925
H       1.36772152     -1.15385350      1.23898609
H       1.55371671      0.50267459     -1.32075417
H      -0.49484911     -0.36693777     -1.97998676
H      -0.25256887     -1.66677046     -0.81037237
H      -2.36242491      0.05056209     -0.57076017
H      -2.04473545     -0.31727565      1.76335925
H      -1.21612340      1.85948978      1.12471827
H      -1.09248384      2.07936213     -0.63281119
