15
b3lypvtz=-219529.43667107
C       0.59006017      1.92667055      0.27364435
C       0.55874624      0.66986433     -0.17474754
C       1.78914938     -0.15932146     -0.43505882
C       1.85730544     -1.43909883      0.40664261
N      -0.64596084      0.03161860     -0.53941422
C      -1.57126410     -0.07273631      0.28507848
F      -2.73834956     -0.62250487     -0.07056526
H      -0.31202322      2.51203272      0.38692711
H       1.53175565      2.41246906      0.48523539
H       1.79618281     -0.42805289     -1.49522419
H       2.67002675      0.45618771     -0.25071173
H       2.76149418     -2.00236235      0.17290091
H       1.87207101     -1.20746888      1.47329122
H       1.00192468     -2.08632752      0.21115206
H      -1.57816358      0.23292514      1.33013462
