16
b3lypvtz=-181141.88111409
C       1.37879341      0.81213704      0.10595775
C       0.26997070      1.47062689     -0.25123666
C      -1.02040596      0.75349645     -0.37745966
C      -1.54246117     -0.03977713      0.81547333
C      -0.95757207     -0.75474246     -0.36505767
C       0.41331372     -1.39654215     -0.32506678
N       1.39173647     -0.55578801      0.37035022
H       2.31879667      1.32364498      0.26708617
H       0.30091002      2.54146933     -0.38954510
H      -1.76905628      1.21385384     -1.00902706
H      -2.61291061     -0.09395404      0.96202314
H      -0.95914556      0.00854612      1.72461135
H      -1.65284183     -1.27729131     -1.01101394
H       0.37576603     -2.36464945      0.18091155
H       0.72025295     -1.58193609     -1.36512441
H       2.31336253     -0.96091200      0.39623277
