16
b3lypvtz=-204450.25456457
C      -2.57919933      1.04211312     -0.35778146
C      -1.37638798      1.05818393      0.20815160
C      -0.23043484      0.21450304     -0.21585665
N      -0.01347255     -0.17712494     -1.41035060
C       0.73911055     -0.16671968      0.88104500
C       1.78238183     -1.20503944      0.47313986
O       2.63203734     -0.75315850     -0.56394258
H      -2.81161951      0.38693817     -1.18897934
H      -3.38061885      1.67233428      0.00249019
H      -1.20280741      1.69085368      1.07284340
H      -0.71508878      0.18066240     -2.05760151
H       1.24232429      0.74884204      1.21341059
H       0.17137913     -0.52952129      1.74486996
H       2.42162576     -1.42736626      1.32886449
H       1.27430112     -2.13504337      0.18985978
H       2.04646923     -0.60035720     -1.32006273
