12
b3lypvtz=-200550.28912685
N       2.65510581     -0.30417936     -0.00000121
C       1.67722187      0.51441732      0.00001727
C       0.25157363      0.25679469      0.00004521
C      -0.80777992      1.14022242     -0.00003951
N      -2.00256888      0.47879972      0.00027784
C      -1.68900536     -0.79791196     -0.00003308
N      -0.34541044     -0.99012032      0.00002063
H       0.12652159     -1.87809198      0.00001545
H       2.34465172     -1.27801318      0.00000554
H       1.92427366      1.57686995     -0.00002209
H      -0.75671360      2.21682682     -0.00019949
H      -2.38937707     -1.61729912     -0.00018058
