12
b3lypvtz=-226232.32277844
N       3.21816356     -1.33873181     -0.40351019
C       2.24431224     -0.73126591     -0.28991752
C       1.07079249      0.07082561     -0.11715510
O       1.27185349      1.34591383      0.34526495
C      -0.14796069     -0.39029763     -0.40948282
C      -1.41751246      0.38709944     -0.23410523
O      -2.41689319     -0.36017277      0.45444775
H       2.18237649      1.45282126      0.63896544
H      -0.21921854     -1.39770876     -0.79736027
H      -1.78665048      0.72156403     -1.21186227
H      -1.23431544      1.27687981      0.36423757
H      -2.76494749     -1.03702710     -0.13352232
