18
b3lypvtz=-181888.49323527
N       1.43207832      1.55085190     -0.06639500
C       0.88738952      0.31680050      0.45489886
C       1.44126625     -1.00046757     -0.14408906
C       0.01520906     -1.61426047     -0.07543254
C      -0.53372225     -0.19678471      0.10736380
C      -1.49087417      0.49177774     -0.81516101
C      -1.85610611      0.25464730      0.63303289
H       1.05046253      2.36184127      0.40546642
H       1.23344748      1.64900920     -1.05529342
H       1.02020008      0.32737822      1.53974439
H       2.23903837     -1.49944123      0.40386244
H       1.76676449     -0.84878091     -1.17420378
H      -0.12838096     -2.23529622      0.81048715
H      -0.32573706     -2.16872499     -0.94956913
H      -1.99087741     -0.09880222     -1.57205469
H      -1.26833640      1.50841024     -1.11642367
H      -1.87688149      1.11293355      1.29400858
H      -2.60569526     -0.49448161      0.85430477
