8
b3lypvtz=-243126.81023098
C       0.43147007      0.30262652     -0.36965028
N       1.50142916      0.94249470     -0.52839350
N      -0.81189783      0.99084868     -0.43952222
N      -1.72643080      0.62035989      0.26520612
O      -1.45610871     -0.57295116      1.11825153
N      -0.57147153     -1.50946339      0.57468487
N       0.32876846     -1.08958380     -0.16170473
H       2.30424117      0.31566857     -0.45887183
