16
b3lypvtz=-204444.28203607
C      -2.18424661      0.34703343     -0.73257354
N      -1.28482481      0.84268833      0.30712939
C      -0.04738168      0.20446917      0.45138904
C       0.97877065      0.16330633     -0.66204380
C       2.07169601     -0.70445623     -0.01470806
O       1.84102001     -0.65869286      1.41150695
C       0.52550506     -0.26972677      1.56036334
H      -2.45758882     -0.71014436     -0.61203958
H      -1.71996063      0.46585850     -1.71152056
H      -3.09518960      0.94497723     -0.72781405
H      -1.76159905      0.92686843      1.19400810
H       0.61232884     -0.28336277     -1.58708906
H       1.31884368      1.17727885     -0.89979415
H       3.08710975     -0.36222030     -0.20268687
H       1.97931681     -1.74550465     -0.33834440
H       0.13630039     -0.33837233      2.56431725
