16
b3lypvtz=-202036.73425259
C       2.35850783      0.63410558      0.07387845
C       0.91015160      0.90013740      0.22135532
N       1.51726169      0.73269782     -1.13136857
C      -0.01312104     -0.12565813      0.76463512
C      -1.17858228     -0.44183275      0.16511439
N      -2.01262278     -1.48776199      0.57691738
N      -1.68815116      0.22496048     -0.94679723
H       3.07279386      1.43809317      0.20059449
H       2.71724676     -0.34616799      0.36468209
H       0.64119060      1.93952782      0.39638601
H       1.31047303     -0.21087823     -1.44687537
H       0.23173588     -0.59842690      1.70748611
H      -1.72259635     -1.90710747      1.44717685
H      -2.98836295     -1.22320240      0.61073853
H      -2.11995240     -0.38914620     -1.62273508
H      -1.03597230      0.86065979     -1.38118850
