14
b3lypvtz=-201284.527646
C      -1.21781235     -0.82996959     -0.58176555
C      -1.32278490      0.39889902      0.31552988
C       0.07482632      0.71702147      0.71359670
N      -0.69096776      1.63085570     -0.15597877
C       0.88085299     -0.31070159     -0.02136082
N       0.21203071     -1.10675976     -0.77105518
N       2.24650321     -0.31498901      0.06490276
H      -1.69993304     -1.69351036     -0.11380857
H      -1.70853444     -0.68010206     -1.54850234
H      -2.16836894      0.53397639      0.97694491
H       0.38510860      1.11157625      1.67313368
H      -0.38344885      1.53308789     -1.11996018
H       2.67691833      0.14831866      0.84481928
H       2.71561013     -1.13770303     -0.27649578
