18
b3lypvtz=-181902.67703271
C      -2.47098690     -0.92804279     -0.36058774
N      -1.80509879      0.11269772     -0.11623975
C      -0.63586687     -0.00837728      0.75327626
C       0.58737517      0.59624122      0.10045711
C       0.49706303      2.07646532     -0.15619349
C       1.67715591     -0.10246272     -0.22488577
C       1.94548630     -1.56871189     -0.06442190
H      -2.22023109     -1.91759880      0.04329594
H      -3.34628844     -0.86428447     -1.00381327
H      -0.46529137     -1.04511674      1.06137819
H      -0.86092716      0.56970022      1.65716274
H       0.37249863      2.62838147      0.78107143
H       1.39013520      2.45104596     -0.65546278
H      -0.37342517      2.30714722     -0.77276889
H       2.49631172      0.45393848     -0.67352249
H       2.80556326     -1.73673497      0.59064529
H       1.10334509     -2.12252271      0.34547518
H       2.19984748     -2.01752425     -1.02879308
