12
b3lypvtz=-226194.78471618
C       2.97128006      0.35680103     -0.00003407
C       2.10470026     -0.64173742     -0.00000569
O       0.72473348     -0.57416780      0.00001540
N       0.23279776      0.72123301      0.00000547
C      -1.04428023      0.76541506      0.00001480
C      -2.00483320     -0.36660158      0.00000922
O      -3.19688066     -0.16674443     -0.00002093
H       2.66838126      1.39104371     -0.00004451
H       4.02459266      0.12115828     -0.00004665
H       2.38491844     -1.68556473      0.00000519
H      -1.47013794      1.76219858      0.00001575
H      -1.58476089     -1.38280771     -0.00004297
