17
b3lypvtz=-191942.16063738
C      -1.96171609     -0.26825166     -0.70315542
C      -2.03085709      0.54853678      0.53722557
N      -0.76938800      0.38942910     -0.17809919
C       0.21864269     -0.45864133      0.43228037
C       1.40211284      0.21310067      1.08290079
C       1.56401298     -0.53190375     -0.23078216
N       1.75411873      0.12875499     -1.49541772
H      -2.03011925     -1.34568903     -0.59500574
H      -2.34212289      0.12110237     -1.63886074
H      -2.46293830      1.54112675      0.51678864
H      -2.14660478      0.01814736      1.47666578
H      -0.15844237     -1.36905447      0.89782988
H       1.41999084      1.29360903      1.03359093
H       1.80533457     -0.21568198      1.99082193
H       2.06242131     -1.49241932     -0.17009933
H       1.02760074      0.82344021     -1.62465715
H       2.64795407      0.60439430     -1.52504270
