11
b3lypvtz=-213015.21830258
N      -1.87784110     -0.85973750      0.00147103
C      -0.65627708     -0.53963700     -0.00040855
N       0.49064192     -1.33557645     -0.00293743
C       1.62274218     -0.53974055      0.00054930
C       1.33696920      0.77905035      0.00117562
C      -0.11775860      0.91822907     -0.00002612
O      -0.80956048      1.90746516     -0.00073370
H      -2.01903255     -1.87094923      0.00084122
H       0.49698977     -2.33947503      0.00618266
H       2.59448558     -1.01002034      0.00149400
H       2.04287815      1.59048152      0.00185297
