15
b3lypvtz=-216925.07062268
C      -2.30581254     -0.53403875      0.45761280
C      -1.14755594     -0.13862054     -0.44838180
C       0.09055923     -0.98180050     -0.31489579
C       1.12081241     -0.20185456     -0.00581464
O       2.42967982     -0.47833760      0.21292990
C       0.69470524      1.23110335      0.09431779
O      -0.71108714      1.19946018     -0.11359078
H      -3.11932764      0.18623500      0.36246420
H      -1.98356378     -0.56288072      1.49917468
H      -2.68804505     -1.51935740      0.18111050
H      -1.50615850     -0.12494970     -1.48742432
H       0.10401165     -2.05178633     -0.46405004
H       2.58368906     -1.42350678      0.10813031
H       0.92523986      1.66045726      1.07569074
H       1.18924532      1.85057908     -0.66520956
