16
b3lypvtz=-227779.98298447867
C      -1.49654699     -0.79876712     -0.81643824
C      -0.47187511     -0.24811834      0.17776661
C      -0.99052521      1.08954984      0.73762133
O      -1.86692076      1.16310412      1.55501883
O      -0.39906158      2.16659786      0.19763155
N       0.82957350     -0.04834290     -0.46659298
C       1.97996067     -0.16585642      0.43168916
H      -1.57943886     -0.14634622     -1.68767361
H      -2.47445368     -0.86885641     -0.34452771
H      -1.20392241     -1.79457833     -1.15436206
H      -0.40404140     -0.93181354      1.03124850
H       0.93212780     -0.67647503     -1.25229164
H       0.28182964      1.80233481     -0.40985033
H       1.93679411      0.61827403      1.18869558
H       2.02739566     -1.13238829      0.94875306
H       2.89910463     -0.02831803     -0.13668807
