13
b3lypvtz=-216144.27167869
C      -0.97719427     -1.05655355      0.04330676
C      -1.13191934      0.44182148      0.07384296
C       0.07310496      1.26934993      0.09854361
O      -0.77582711      1.17080328     -1.09113250
C       1.36711191      0.57159029      0.04107438
C       1.39546952     -0.74266980     -0.18864537
O       0.31565409     -1.53809606     -0.36048299
H      -1.18529368     -1.43876960      1.04892091
H      -1.68704381     -1.51071119     -0.64881705
H      -2.03650190      0.77736433      0.57801735
H       0.03746545      2.24488668      0.56827124
H       2.29306527      1.11911853      0.12900520
H       2.31190890     -1.30813430     -0.29190448
