13
b3lypvtz=-213774.72947085
C       1.83836207      0.22572810     -0.36992712
N       0.70450458      1.09447161     -0.15240602
C      -0.41812342      0.68728735      0.23561469
C      -0.86871891     -0.71833119      0.61156145
C      -1.53745746     -1.39922719     -0.49320820
N      -2.05134047     -1.94218348     -1.36699154
O      -1.45066655      1.55379181      0.38324434
H       1.67964264     -0.82594906     -0.10886976
H       2.12153563      0.26818077     -1.42341353
H       2.68877747      0.59840803      0.20353273
H      -1.56330777     -0.64394284      1.44918482
H      -0.01868279     -1.31928707      0.93087607
H      -1.12452499      2.42105317      0.10080207
