12
b3lypvtz=-179578.35587467
C       2.60991686     -0.12990916      0.51242967
C       1.21175825      0.11883524      0.20652323
C       0.05317266      0.32480557     -0.04802007
C      -1.32644013      0.58425353     -0.35356108
N      -1.80820706      1.73375631     -0.65196483
C      -2.20025892     -0.55945603     -0.31003574
C      -2.89934680     -1.53379784     -0.26450670
H       3.22312316     -0.04648039     -0.38734881
H       2.74847294     -1.13118971      0.92409906
H       2.98443942      0.59261448      1.24024865
H      -1.06492622      2.43255244     -0.63932368
H      -3.53170417     -2.38598442     -0.22853971
