18
b3lypvtz=-205189.85104825
C      -2.62755467     -0.18646773      0.16590869
C      -1.24971159      0.39914078      0.44779887
N      -0.33750907      0.08135772     -0.65027215
C       0.48309890     -1.11637767     -0.53942990
C       1.10617175      0.23927969     -0.49766604
C       1.76748697      0.74862081      0.76232168
O       3.15988643      0.44249537      0.77654427
H      -3.32835969      0.07794918      0.95962615
H      -2.58296666     -1.27545121      0.10479741
H      -3.01526905      0.18820715     -0.78142942
H      -0.89152198      0.03439682      1.41996180
H      -1.31741411      1.48766805      0.51684386
H       0.55440744     -1.73616465     -1.42529932
H       0.44258677     -1.66628418      0.39869255
H       1.59355317      0.59922579     -1.39899115
H       1.71306448      1.83791874      0.80534262
H       1.27361384      0.35652516      1.65631174
H       3.25643704     -0.51223979      0.69783835
