14
b3lypvtz=-203693.3854559
C       3.44245853      0.35659755     -0.04299865
C       2.32822538     -0.08194423      0.03388118
C       0.96659106     -0.59497050      0.12484582
C      -0.08559564      0.50327901     -0.07181520
C      -1.50445994     -0.05400582     -0.04606041
N      -2.48471685      0.88469852      0.08111351
O      -1.75123605     -1.24143746     -0.13935057
H       4.43228364      0.73293703     -0.11053009
H       0.81793816     -1.07318570      1.09555751
H       0.80913946     -1.37765049     -0.61869083
H       0.06926223      0.99499788     -1.03598864
H       0.02534290      1.27728513      0.69047642
H      -3.44304707      0.58445422      0.02727747
H      -2.28511479      1.86801988      0.10370446
