14
b3lypvtz=-203691.64650793
N      -2.32992185     -0.04944534      0.09999491
C      -0.93017848     -0.06013332     -0.00807853
C      -0.20952067     -1.18310755     -0.02918671
O       1.17417836     -1.23053076     -0.00683788
C       1.81642571     -0.03065778      0.00885996
C       1.21335109      1.15377356      0.00463262
C      -0.28108708      1.29743755     -0.00836056
H      -2.76120126     -0.95315348     -0.03639651
H      -2.76839404      0.63748618     -0.49987806
H      -0.63380918     -2.17604932     -0.03497924
H       2.88841831     -0.16215358      0.02717612
H       1.82920610      2.04215115      0.02521927
H      -0.61723987      1.86937168     -0.88712242
H      -0.63613214      1.86980001      0.85903503
