19
b3lypvtz=-192746.44289352
C      -2.25218841     -0.50761988      0.68209014
C      -1.51380166      0.05269570     -0.54139610
C      -0.14523100      0.62365481     -0.20412069
N       0.09902590      1.88165181     -0.13420013
N       0.85548147     -0.27455105      0.11775344
C       2.16571156      0.27037645      0.44088637
C       0.87092723     -1.63184930     -0.39834322
H      -3.24300264     -0.86854501      0.40240652
H      -2.37590602      0.26597090      1.44087304
H      -1.70905161     -1.33391420      1.14096870
H      -1.43806365     -0.71427914     -1.31448064
H      -2.09881132      0.86249992     -0.97718773
H      -0.74471585      2.41460468     -0.31968939
H       2.72708108      0.55892160     -0.45614078
H       2.04689083      1.15903092      1.05275316
H       2.73654030     -0.48261085      0.98482148
H      -0.11727667     -2.08182921     -0.37225088
H       1.24874200     -1.68878563     -1.42864419
H       1.52385647     -2.24061452      0.22769688
