12
b3lypvtz=-226180.51640576
C      -0.46584196      0.12444886      0.51567620
C       0.41215716     -0.96935894     -0.20613838
C       1.65324500     -0.20191493      0.27796242
O       2.76315994     -0.35292690      0.66847550
C       0.66925523      0.88102406     -0.21826793
O       0.48484336     -0.04578753     -1.38044374
N      -1.79714607      0.40960218      0.06439423
H      -0.41695149      0.12574401      1.60543997
H       0.22650368     -2.02091459     -0.40066701
H       0.77932834      1.93980999     -0.42813142
H      -2.46275736     -0.24903544      0.44841353
H      -1.84579580      0.35930925     -0.94671339
