16
b3lypvtz=-202022.37078036
C      -1.06548446      1.59875108     -0.39687227
C      -0.40969926      0.47875256     -0.09899315
N      -1.07491285     -0.65498256      0.46003467
N      -2.19908475     -0.90173514     -0.00369804
C       1.10039429      0.31962801     -0.14845639
C       1.51639322     -0.85124151     -1.03963981
N       1.70984515      0.15969465      1.17878369
H      -2.13800120      1.66297628     -0.27863684
H      -0.53709845      2.47627373     -0.74418814
H      -2.56327067     -1.70951336      0.52211849
H       1.50211615      1.24008917     -0.57729761
H       1.13216234     -0.72849947     -2.05290226
H       1.13112691     -1.79340649     -0.64473502
H       2.60324745     -0.91670761     -1.07672930
H       1.32694782     -0.66497771      1.62889250
H       1.46672829      0.94657937      1.77032049
