13
b3lypvtz=-239480.01874904
C      -0.52374621      1.00412254     -0.70664492
C      -0.08772310      0.29194999      0.57039697
C      -0.88546967     -0.41379019     -0.52665657
O      -2.23208407     -0.68872500     -0.28806180
C       1.32087160     -0.05824347      0.82623630
O       1.82989496     -0.13982974      1.91684765
O       2.01914626     -0.30889964     -0.31651155
H       0.24234946      1.25219505     -1.42538057
H      -1.31598813      1.72893582     -0.58667973
H      -0.63857693      0.52950705      1.46759870
H      -0.34847629     -1.15100918     -1.11266686
H      -2.29701918     -1.50310056      0.22169248
H       2.91682129     -0.54311267     -0.04017010
