12
b3lypvtz=-223802.25314656
C      -2.51217865     -0.35359260      0.04879040
N      -1.45886789      0.63904306     -0.11149012
C      -0.15093168      0.24904387     -0.02421350
N       0.23781907     -1.00053087     -0.01360128
O       1.62516634     -0.94963788      0.01216090
N       2.06840984      0.33647891      0.03325247
C       1.01091077      1.08484709      0.00978030
H      -2.48285786     -0.84738618      1.02515022
H      -2.40781290     -1.12037692     -0.71739358
H      -3.47527785      0.13634527     -0.07798082
H      -1.65290754      1.54986404      0.26898996
H       1.08591534      2.15956320      0.01092404
