19
b3lypvtz=-192745.63361965
C       1.72174891      1.28166772     -0.43592400
C       1.30952669     -0.09254532      0.01255449
N       2.40902229     -0.95226350      0.17634810
C       0.04753928     -0.51747276      0.17418559
C      -1.23190759      0.23891375     -0.06365775
C      -2.12982848     -0.47382015     -1.07809443
N      -2.02252078      0.47052129      1.16678850
H       2.26331776      1.22479805     -1.38310193
H       0.87704232      1.95194164     -0.56146227
H       2.40097396      1.73261685      0.29476293
H       2.19495182     -1.81507933      0.65451476
H       3.22751111     -0.51204853      0.57147694
H      -0.09341500     -1.54363557      0.51303123
H      -1.00304572      1.22816966     -0.46352877
H      -1.62669973     -0.57702692     -2.03957014
H      -2.38389225     -1.47835131     -0.72726058
H      -3.05869126      0.08003854     -1.21867433
H      -1.41964469      0.85962752      1.88388476
H      -2.34619663     -0.42081764      1.53144992
