10
b3lypvtz=-202186.18415538
N      -2.93280088      0.02419941      0.00001599
C      -1.77999768      0.01096687      0.00012051
C      -0.36381150      0.00839907      0.00013243
C       0.44504077     -1.09038018     -0.00002207
O       1.73922522     -0.71381892      0.00001251
C       1.76693166      0.65184667      0.00008081
C       0.51166198      1.15046556     -0.00008122
H       0.24143699     -2.14571106     -0.00013457
H       2.74239826      1.10239248      0.00015157
H       0.21945020      2.18549210     -0.00025597
