16
b3lypvtz=-202049.49970919
C       2.98569358      0.46094939     -0.39855810
N       1.60652071      0.39960583      0.03239644
C       1.03608672     -0.72916462      0.05038413
N      -0.27607910     -0.91349952      0.41354497
C      -1.09588007      0.14815762      0.95222778
C      -2.22038463      0.59101196      0.03823672
N      -2.46229380      0.19706444     -1.13622880
H       3.07473989      1.11336595     -1.27069306
H       3.40949753     -0.51965399     -0.66002603
H       3.60286264      0.89958015      0.38926555
H       1.53374453     -1.66357302     -0.23807101
H      -0.57970674     -1.86139878      0.54539093
H      -0.44669375      1.00410459      1.14862266
H      -1.52735728     -0.15009676      1.91381140
H      -2.88355410      1.34165047      0.47641480
H      -1.76188914     -0.49553271     -1.41830937
