12
b3lypvtz=-200525.07105222
N      -0.41844737      2.01254008     -0.04100583
C       0.06205656      0.84073573      0.01662756
C       1.51838259      0.50425028      0.02960911
N       1.70587638     -0.75946325     -0.00473078
C       0.41035332     -1.39452876     -0.01281173
C      -0.59624047     -0.50358827      0.01849996
N      -1.97062001     -0.65178836     -0.05515991
H      -1.44067349      1.99571896     -0.08974921
H       2.31676576      1.23286792      0.05688392
H       0.36124999     -2.47124950     -0.04491781
H      -2.49935757     -0.03309218      0.54316357
H      -2.29973669     -1.60146966      0.02792414
