20
b3lypvtz=-182664.17938894
C      -2.86163244      0.47251901      0.24067711
C      -1.81411647     -0.56811342     -0.15493225
C      -0.41031839     -0.20451553      0.29948263
C       0.33165315      0.95630044     -0.41136631
C       1.55371732      0.00862959     -0.50558375
C       2.67035604      0.28844590      0.49020972
N       0.65770180     -1.12957170     -0.16380565
H      -2.63635397      1.44917696     -0.19339646
H      -2.90877470      0.59714789      1.32511921
H      -3.85600649      0.18242414     -0.10135787
H      -1.79986785     -0.70431942     -1.23947399
H      -2.07752004     -1.54081302      0.27257985
H      -0.41138609     -0.06155064      1.38803043
H       0.47545763      1.87522378      0.15439952
H      -0.10041552      1.19740529     -1.38219046
H       1.98200700     -0.09298935     -1.50632674
H       2.27814214      0.43277693      1.49982072
H       3.38177975     -0.54074807      0.51776565
H       3.22340857      1.18873680      0.21128382
H       1.02091457     -1.76351358      0.53872884
