13
b3lypvtz=-213760.72837907
C       2.03447600      0.86336218     -0.09549414
N       0.69566657      0.62805702      0.40782135
C      -0.11339427     -0.06987250     -0.25107366
C      -1.50859869     -0.28749649      0.32128000
C      -1.74486198     -1.74237973      0.46012490
N      -1.92069055     -2.87604505      0.54088001
O      -1.68323327      0.38144087      1.53614614
H       2.22454238      0.38681804     -1.06335672
H       2.75476851      0.49219834      0.63472273
H       2.19441406      1.93865746     -0.18603142
H       0.11344670     -0.54298961     -1.21143347
H      -2.23855158      0.07940658     -0.41290161
H      -0.80798387      0.74884289      1.75398799
