15
b3lypvtz=-214522.41157098
C      -2.44243551     -1.08683390     -0.13057262
C      -1.55499137      0.11797399      0.03843536
N      -1.86752838      1.33605542     -0.14626735
N      -0.27072444     -0.21118543      0.52557187
C       0.74285025      0.31618377     -0.02104254
C       2.13103322      0.08511189      0.49789966
O       3.04498390     -0.22965090     -0.54806324
H      -3.42941386     -0.80434843     -0.49241688
H      -2.54142409     -1.60925672      0.82216556
H      -1.99411942     -1.79223102     -0.83353149
H      -2.83775447      1.41727384     -0.44546398
H       0.65427603      0.96624961     -0.89752776
H       2.49868514      1.01475958      0.94040834
H       2.10853462     -0.67839197      1.27973672
H       2.81730537     -1.09612371     -0.89946864
