12
b3lypvtz=-226242.82099311
N       3.39858067     -0.56847201     -0.27049923
C       2.38403405     -0.02176622     -0.35842166
C       1.10381066      0.57922174     -0.42403335
C       0.03281426     -0.03046632      0.11914160
O       0.07256177     -1.22885062      0.73309695
C      -1.35314127      0.54825752      0.13155421
O      -2.30397971     -0.31520279     -0.46558675
H       0.99756458      1.53119930     -0.92039185
H       0.96471711     -1.60430730      0.69563196
H      -1.62042533      0.77867741      1.17115680
H      -1.36742881      1.47639356     -0.43544180
H      -2.30900800     -1.14478428      0.02369311
