16
b3lypvtz=-204436.26372001
C      -2.91189802      0.03313238      0.39357487
C      -1.60315541     -0.38035784     -0.21808338
C      -0.43272275      0.51425548     -0.23874586
O      -1.21283874      0.27113625     -1.42651300
C       0.94353268     -0.02430792     -0.25725018
N       1.88929386      0.57192537      0.32847948
C       3.21070856     -0.01874826      0.28349834
H      -2.96757220     -0.29373983      1.43377329
H      -3.74512458     -0.41961197     -0.14697098
H      -3.02948010      1.11569996      0.35976755
H      -1.40664917     -1.45096493     -0.22350443
H      -0.53097628      1.50844827      0.18442307
H       1.08001189     -0.96213380     -0.81479508
H       3.90717041      0.69929751     -0.15354628
H       3.25697827     -0.95488353     -0.28830335
H       3.55272157     -0.20914716      1.30279520
