16
b3lypvtz=-204456.59204002
C      -0.71132782     -0.98350194      0.64994113
C       0.73189378     -1.00946547      0.12062156
C       1.19620741      0.37294321     -0.22879372
C       0.37379387      1.42306088     -0.27972778
N      -1.00907572      1.33634360     -0.03283965
C      -1.56814145     -0.00644617     -0.15221921
O       2.53719127      0.53991202     -0.54176017
H      -0.71282622     -0.66666465      1.69502011
H      -1.14983243     -1.98166264      0.61096154
H       0.82006185     -1.66731735     -0.75128807
H       1.39241018     -1.43836675      0.88579915
H       0.76236985      2.40986745     -0.49043005
H      -1.53497962      2.02508591     -0.54968054
H      -1.60084609     -0.33945556     -1.20113675
H      -2.59120504      0.00459378      0.22640623
H       3.06430619     -0.01892631      0.03912623
