14
b3lypvtz=-224565.0736492
C      -2.30195903     -0.43031432      0.09516204
N      -0.87393810     -0.58661665      0.29155588
C      -0.12039553      0.33719896     -0.10711248
N      -0.45206261      1.53389252     -0.71285476
O       1.25512023      0.28449672      0.00804210
N       1.76388361     -1.02654335      0.09814040
C       2.95461420     -1.00170675      0.52445731
H      -2.72258969      0.36696116      0.72442944
H      -2.80460514     -1.35500604      0.37420956
H      -2.56486317     -0.20491868     -0.94594937
H      -1.34846813      1.91762345     -0.46366631
H       0.28918117      2.21305083     -0.77158719
H       3.45610603     -1.95818640      0.58969108
H       3.46997615     -0.08993143      0.81504940
