16
b3lypvtz=-204413.87610216
C      -1.01374826      0.11110479      1.22880725
N      -2.04904329      0.43010843      0.21728193
C      -1.12398336      0.05528022     -0.88242119
C      -0.26500277     -0.71307513      0.14877462
C       1.23406291     -0.65901659      0.11148573
C       2.01819485      0.41219517     -0.50886025
O       1.87196297     -0.85594492     -1.15769991
H      -0.42481195      0.97371888      1.56273067
H      -1.38481596     -0.42329221      2.10487644
H      -2.36432909      1.39174566      0.20920082
H      -0.59420915      0.90060169     -1.33194580
H      -1.58175355     -0.53155736     -1.67891096
H      -0.57599739     -1.75802726      0.18869324
H       1.71751254     -1.20243547      0.92213640
H       3.01439846      0.62695363     -0.13421470
H       1.52156306      1.24164047     -0.99993429
