11
b3lypvtz=-233882.92113300032
C       0.69886846      0.20655549      0.11673178
C      -0.66400675      0.31854912     -0.03078460
O      -1.00525070      1.59415510      0.12615165
N       0.24037718      2.31892028      0.39006868
N       1.15840580      1.45689046      0.36713636
N      -1.64642285     -0.58801169     -0.29055056
N       1.53797939     -0.89156434      0.04783573
H      -1.43922639     -1.55874156     -0.41331042
H      -2.59902999     -0.28582314     -0.36023638
H       2.51946916     -0.76018208      0.19076156
H       1.19883668     -1.81074761     -0.14380380
