15
b3lypvtz=-214537.81567355
C      -2.05606335     -0.72248171     -0.56841605
C      -1.14850147     -0.11248023      0.49515022
C      -0.66241251      1.32739639      0.13951420
N       0.73224362      1.20522333     -0.29340971
C       1.07768515      0.01702112     -0.02564744
O       2.30712405     -0.47313565     -0.28863906
N       0.14767229     -0.82072767      0.60231347
H      -2.99955513     -0.17604922     -0.62036343
H      -2.29142246     -1.76568194     -0.34428661
H      -1.58437136     -0.67667452     -1.55241585
H      -1.65394829     -0.13195183      1.46132588
H      -0.71372208      1.98795584      1.00904494
H      -1.27479256      1.77852332     -0.64457449
H       2.46248864     -1.25078628      0.25852806
H       0.13991346     -1.77740596      0.27194286
