15
b3lypvtz=-193583.2101856
C      -1.45294029     -0.90761496     -0.55351748
C      -0.90776069      0.08858769      0.43791982
C      -0.39906409      1.43662384      0.00025811
C       0.57425014      0.42276659      0.53904091
C       1.52185107     -0.21397455     -0.33903263
C       2.32234914     -0.76946657     -1.04161293
O       1.07500582      0.74318827      1.81832618
H      -0.90126463     -0.87655635     -1.49299722
H      -2.50153655     -0.69474344     -0.77269803
H      -1.39186777     -1.92685037     -0.16683307
H      -1.38372605      0.08348392      1.41138493
H      -0.35987214      1.64923701     -1.05907233
H      -0.57895040      2.28868071      0.64042915
H       3.03400732     -1.24736170     -1.66728835
H       1.34951913     -0.07600010      2.24569296
