13
b3lypvtz=-237077.57615674
C       2.62902891     -0.76757967     -0.00000289
C       1.33853039     -0.01969789     -0.00002694
O       1.39101268      1.34981038      0.00001408
N       0.22062924     -0.62170926     -0.00007806
N      -0.90982314      0.15067913     -0.00007835
C      -2.14026021     -0.43874270     -0.00008867
O      -3.18183553      0.17853185      0.00008954
H       3.22314385     -0.51848982      0.88372668
H       3.22320677     -0.51843995     -0.88367604
H       2.43180685     -1.83557939     -0.00003985
H       2.30461512      1.65055861      0.00004902
H      -0.84819230      1.16142958     -0.00006057
H      -2.06412464     -1.53718988      0.00014604
