19
b3lypvtz=-192731.32836775
C       1.85809443      1.04885026     -0.20204037
C       1.14223074     -0.25977306      0.12758951
C      -0.30692535     -0.23181237     -0.32818006
C      -1.32939093     -1.14665131      0.29697576
C      -1.39126170      0.33747511      0.54202132
N      -2.45530521      1.06987994     -0.10102560
N       1.92276280     -1.37903580     -0.42258151
H       2.88777280      1.02099553      0.15362754
H       1.87849593      1.21391416     -1.28303504
H       1.35088601      1.89986673      0.25396989
H       1.14924502     -0.38728987      1.21558976
H      -0.44370395     -0.04640017     -1.38865016
H      -1.01733528     -1.78309917      1.11563088
H      -2.09235778     -1.56557592     -0.34384243
H      -1.07465388      0.66039914      1.53317650
H      -3.29949236      1.04763402      0.45946031
H      -2.20207080      2.04341201     -0.22434350
H       1.44024418     -2.25399977     -0.24709204
H       1.98276533     -1.28878944     -1.43235093
