13
b3lypvtz=-237065.72010569
N      -2.60882771     -0.52501264     -0.05054984
C      -1.36278349     -0.74653093      0.09926287
C      -0.28853157      0.24523780      0.02996733
N      -0.66513701      1.60121644     -0.09275298
C       1.00025176     -0.13770070      0.01518589
O       2.01810494      0.77429534      0.08542301
O       1.39140695     -1.43570559     -0.14586266
H      -2.76817274      0.45668030     -0.28856969
H      -1.04685834     -1.76484563      0.31401849
H       0.13722293      2.21359392     -0.12546305
H      -1.27684000      1.89589399      0.65866492
H       2.70584852      0.52280101     -0.54472524
H       2.01970977     -1.66613331      0.55171096
