15
b3lypvtz=-216926.18977955
C       1.42444006      0.11877291      0.57790760
C       0.91934783     -1.14243665     -0.11632700
O      -0.48323428     -1.30148703      0.06540113
C      -1.25147314     -0.28185535     -0.55545562
C      -0.68083760      1.08826099     -0.28564954
C       0.51816707      1.27288297      0.25630472
O      -2.57081658     -0.39986868     -0.10265404
H       1.46787400     -0.03486916      1.66138725
H       2.44721853      0.33752385      0.25711567
H       1.37913918     -2.04106462      0.29247105
H       1.15688407     -1.09840081     -1.18761553
H      -1.30913829     -0.47168096     -1.63587187
H      -1.32127927      1.92145155     -0.54871794
H       0.87066678      2.27538455      0.47221592
H      -2.56695836     -0.24261356      0.84948819
