16
b3lypvtz=-202023.60411886
C      -1.78191474     -1.06768089      0.53851505
N      -1.55936609      0.08114404      0.03509626
N      -0.29688354      0.50301001     -0.31031157
C      -0.20993166      1.95625014     -0.32666523
C       0.87545045     -0.24257169     -0.02000049
C       1.83796153      0.19945521      0.79850832
N       0.90733123     -1.47556060     -0.67488665
H      -1.02510098     -1.81921564      0.73784209
H      -2.81778894     -1.29305132      0.76053766
H       0.67882014      2.25967225     -0.87573928
H      -0.17033215      2.39056979      0.67867527
H      -1.09887249      2.33492628     -0.82521440
H       1.71321518      1.09995930      1.37708465
H       2.76723185     -0.34218659      0.90669081
H       1.78920261     -1.95892309     -0.60839843
H       0.54722759     -1.44851921     -1.61758806
