15
b3lypvtz=-237851.09391378
C      -0.56417146     -0.28903631     -1.27517824
C      -0.35968040     -0.12023942      0.22893353
N      -0.54516955      1.20056178      0.76936126
N      -1.20607477     -1.00249391      0.95028444
O       1.07207566     -0.52238275      0.52626673
C       2.08614047      0.24378174      0.13955491
O       2.03196442      1.28240733     -0.47062160
H      -0.35256118     -1.31391252     -1.58468351
H      -1.60122235     -0.05954965     -1.51707805
H       0.08913542      0.38457348     -1.82358447
H      -1.53112198      1.42603731      0.76743867
H      -0.02849183      1.88634375      0.23399676
H      -1.09988537     -1.96147721      0.64939621
H      -1.02084870     -0.93572686      1.94330969
H       3.03001162     -0.21878677      0.46260367
