16
b3lypvtz=-204449.03360683
C      -3.21796277     -0.32758232      0.21263131
N      -2.19365149     -0.20050804     -0.51046490
C      -0.88760098     -0.30208948      0.11654851
C      -0.06712369      0.96092591     -0.15738865
C       1.36543200      0.87409836      0.38866493
C       2.21784723     -0.11731486     -0.36157722
O       2.86747227     -0.99590404      0.14424366
H      -3.17648941     -0.51680351      1.29318889
H      -4.20461712     -0.25251351     -0.23953944
H      -0.38203854     -1.16640316     -0.32494500
H      -0.95710878     -0.48096732      1.19992964
H      -0.05051096      1.14196428     -1.23490968
H      -0.57170857      1.81868928      0.29137570
H       1.84512414      1.85259955      0.27021756
H       1.38517495      0.62031948      1.44947342
H       2.21850170      0.01721838     -1.46590172
