12
b3lypvtz=-202961.48955513
C      -1.31417610      0.77416647     -0.00779144
C       0.01121030      1.15897585      0.11849183
C       0.98804484      0.17009729      0.08226057
C       0.58676425     -1.15628756     -0.07872208
N      -0.68509220     -1.52505299     -0.19993317
C      -1.61836637     -0.57447656     -0.16487786
O       2.29458538      0.53928569      0.20554857
H      -2.10517305      1.51178411      0.01515802
H       0.29954410      2.19393387      0.24260846
H       1.33221201     -1.94818799     -0.10991907
H      -2.64620596     -0.90228708     -0.26592484
H       2.85665281     -0.24195110      0.16310102
