14
b3lypvtz=-203696.06713019
C       2.96017362     -0.64876560      0.24976218
C       2.31653319      0.43268561     -0.19124332
C       0.87805571      0.67021444     -0.10576343
C      -0.07272465     -0.26973149     -0.08833902
C      -1.51741087      0.00196509      0.02170840
N      -2.14195456      1.09213805      0.20407449
O      -2.22679314     -1.15029989     -0.10158504
H       4.03106370     -0.74620792      0.13684400
H       2.44465358     -1.45927100      0.74897176
H       2.89639360      1.23685144     -0.63286458
H       0.57939482      1.71448652     -0.08182021
H       0.18933991     -1.31593933     -0.18137467
H      -1.51419875      1.88405003      0.29604621
H      -3.15861816     -0.90233095     -0.01676778
