17
b3lypvtz=-191967.93824966
C      -2.21326947     -0.51313175     -0.57136091
C      -0.78078215     -0.76015897     -0.17069562
C      -0.30233036     -0.51042740      1.22266000
C       0.18494123      0.39496772      0.11182716
N      -0.37554804      1.72521340      0.10143516
C       1.59000063      0.24729238     -0.38232155
N       2.39159863     -0.73067605     -0.29253272
H      -2.30352323     -0.37658922     -1.65126303
H      -2.60672334      0.37665922     -0.08386041
H      -2.83733106     -1.36516908     -0.29273602
H      -0.30481761     -1.59181055     -0.67810525
H       0.41032265     -1.19230770      1.66857067
H      -0.99839161     -0.05923278      1.91640667
H       0.12495595      2.33838285      0.73351243
H      -0.33924149      2.13783166     -0.82339900
H       1.95778383      1.13453446     -0.90792316
H       1.97983646     -1.51487719      0.21873659
