13
b3lypvtz=-270389.6015989
C      -1.30303260     -0.51962000      0.18253741
C       0.09085671      0.09575216      0.39380991
C       0.05553109      1.55477324     -0.02355366
O      -0.07629762      2.46918118      0.74395591
C       1.14564646     -0.65749749     -0.39420154
F       1.22524712     -1.95204861      0.03579229
F       2.37372432     -0.08718601     -0.19358503
H      -1.62048113     -0.44160231     -0.85978225
H      -2.03707237     -0.00413013      0.79952507
H      -1.29557217     -1.57308963      0.45726673
H       0.36603544      0.05526123      1.44879548
H       0.11287355      1.73809262     -1.11844181
H       0.96254121     -0.67768626     -1.47211852
