14
b3lypvtz=-224604.32092804
C       1.77415902     -1.06990743     -0.74948407
C       1.18426536      0.01322467     -0.24621315
N       1.69411779      0.89256986      0.69578120
O      -0.09254848      0.37508568     -0.63785732
C      -1.17206111     -0.06781439      0.12059114
N      -1.17607985     -0.90892477      1.05956231
N      -2.29519142      0.59879366     -0.30803583
H       2.79756800     -1.31161472     -0.50432547
H       1.22991819     -1.72523198     -1.40907305
H       2.68738570      0.82653385      0.85217489
H       1.37360810      1.84292107      0.58786626
H      -0.24750040     -1.25939629      1.26986681
H      -2.27324070      0.93064866     -1.25787572
H      -3.15690220      0.16538114     -0.02189999
