15
b3lypvtz=-191226.46285201
C       2.53954688      0.26281953      0.00000347
N       1.48604540     -0.73584651      0.00000649
C       0.28621347     -0.32382846     -0.00000131
C      -0.95553875     -1.20958281     -0.00000122
C      -2.09440926     -0.22016264      0.00000601
C      -1.58695099      1.01297571      0.00000160
N      -0.18678415      0.98703328     -0.00001248
H       2.50035636      0.91187401      0.88626510
H       2.50035922      0.91186500     -0.88626461
H       3.50959710     -0.23170291      0.00000831
H      -0.95126617     -1.86267633      0.87592387
H      -0.95127202     -1.86266686     -0.87593360
H      -3.14073457     -0.47304114      0.00000982
H      -2.10202847      1.96081813      0.00000320
H       0.39874797      1.80077901      0.00001937
