17
b3lypvtz=-191961.43729544
N       3.29083440     -0.08019806      0.60884989
C       2.11961629     -0.42368814     -0.06666308
C       0.99588193      0.29311659     -0.13269269
C      -0.27047046     -0.18666551     -0.78096105
C      -1.41768527     -0.34262402      0.19625110
C      -2.33037110      0.77701081      0.52468554
N      -2.77603816     -0.30912494     -0.36632663
H       4.13902699     -0.42215481      0.18499075
H       3.36945515      0.89628536      0.85167628
H       2.15729969     -1.40921797     -0.52026209
H       0.96885743      1.27725451      0.32915042
H      -0.59719533      0.50619921     -1.56328425
H      -0.09281136     -1.14700314     -1.27462723
H      -1.23130723     -1.05225270      0.99712648
H      -2.74002488      0.83328645      1.52634706
H      -2.19940763      1.73563169      0.03628658
H      -3.38576046     -0.94575531      0.13495291
