16
b3lypvtz=-202065.66918506
C      -1.44488538      1.27456571      0.42938072
C      -1.18687537     -0.13806746     -0.01384795
N      -2.34006073     -0.90636765     -0.09598888
C       0.03072265     -0.67438005     -0.23282865
C       1.33299820      0.00867005     -0.12234017
N       1.63036315      1.20692328     -0.47897020
N       2.32612567     -0.76353488      0.45009039
H      -2.19042294      1.27548593      1.22755574
H      -1.84531507      1.87455889     -0.39318011
H      -0.54068247      1.75495578      0.79085894
H      -2.27072448     -1.77088539     -0.60845429
H      -3.19576222     -0.40757238     -0.27642577
H       0.07415012     -1.73385784     -0.47195958
H       0.83633591      1.65119139     -0.92490001
H       3.26922668     -0.44927549      0.29253798
H       2.18949528     -1.75509689      0.52174584
