14
b3lypvtz=-226982.17947501
C       2.91814874      0.62650420     -0.41560550
C       1.72260451      0.05868483     -0.41992287
O       0.58326010      0.76727678     -0.10225603
C      -0.56643345      0.03297855      0.07839637
C      -1.57087164      0.05181085     -0.79284418
N      -2.75742472     -0.68324179     -0.65583880
O      -0.59899616     -0.73906899      1.21504906
H       3.05073223      1.66368387     -0.14157262
H       3.78453083      0.05066423     -0.70211351
H       1.54824109     -0.97677578     -0.68844596
H      -1.44721228      0.60693055     -1.71066503
H      -3.57901734     -0.17247731     -0.94606699
H      -2.88023486     -1.05225305      0.27696378
H      -0.20732704     -0.23471694      1.93930197
