15
b3lypvtz=-216898.16772276
O       1.12430205      0.64448226     -1.44317200
C       1.68614868      0.87164955     -0.17335596
C       1.01336191      0.25941323      1.02311678
C      -0.20889423     -0.23742061      1.22757441
C      -1.39976539     -0.37067632      0.35307799
C      -1.43739894     -1.07135030     -0.94168708
O      -1.51070913      0.36312405     -0.88343534
H       0.17256427      0.83211464     -1.39680522
H       1.79663622      1.95022810      0.02791390
H       2.70525326      0.47590807     -0.21420873
H       1.66647803      0.25685429      1.89236082
H      -0.41429562     -0.59829256      2.23089031
H      -2.33207069     -0.36345048      0.91092316
H      -0.50992919     -1.45502103     -1.34912167
H      -2.35158121     -1.55776290     -1.26387138
