10
b3lypvtz=-225476.64397368
C      -1.04387545     -0.58660478     -0.01343342
C      -0.62360960      0.86406469      0.11432841
O      -1.30279728      1.84329895      0.24267616
C       0.92862212      0.82722357      0.04271895
O       1.68369181      1.75932250      0.10349732
C       1.22356359     -0.62472216     -0.11644042
N       0.19366716     -1.37736216     -0.14732335
H      -1.60530226     -0.92683627      0.85915236
H      -1.68181943     -0.75104068     -0.88428158
H       2.22785935     -1.02734366     -0.20089444
