14
b3lypvtz=-227003.07252217
C       2.77659119     -0.31139940      0.35261175
N       1.56010644     -0.56993708     -0.42189686
C       0.37884654      0.08065680     -0.13679574
O       0.48394193      1.42458967      0.01687966
C      -0.82461997     -0.53510594     -0.03523836
C      -2.08648316      0.16827914      0.02882745
O      -3.16887595     -0.37932803      0.14333457
H       2.70761226     -0.68249094      1.38039583
H       2.98842204      0.75487433      0.39324672
H       3.61500473     -0.79573786     -0.14405148
H       1.41219226     -1.54884976     -0.61511368
H       1.23007394      1.74727379     -0.50295840
H      -0.85849537     -1.61626575     -0.01270432
H      -2.02083587      1.27045402     -0.03733216
