14
b3lypvtz=-226993.81035056
C       2.15672325      0.71104274      0.42324366
C       1.17953969     -0.09432226      0.00590976
O       1.34182158     -1.39063711     -0.37345450
C      -0.24503977      0.35729285     -0.08575290
N      -0.65253428      1.51110741     -0.41888047
O      -1.09210436     -0.62943075      0.24699491
C      -2.48809772     -0.31869851      0.17175946
H       1.94165185      1.71694619      0.74603657
H       3.18464004      0.37623539      0.47285756
H       2.26399384     -1.64275788     -0.25065066
H       0.12681828      2.10831877     -0.67387978
H      -3.00346393     -1.23355837      0.45041142
H      -2.75816057     -0.01460501     -0.83903443
H      -2.73992688      0.48991554      0.85726241
