15
b3lypvtz=-242851.38296322
C      -1.70333664     -1.54597945     -0.05043584
C      -0.78981224     -0.34294177     -0.28485107
C      -1.40594731      0.92658012      0.29347285
F      -0.62146560      2.02619963     -0.03548094
N       0.53972192     -0.58690389      0.24829389
C       1.70469219     -0.20825525     -0.34631457
O       2.80242527     -0.33204988      0.14946572
H      -1.27348967     -2.43947513     -0.50041967
H      -1.83596264     -1.73617250      1.01726904
H      -2.68965543     -1.38105859     -0.48514933
H      -0.67203856     -0.18490817     -1.35940431
H      -2.40452353      1.09425244     -0.11603308
H      -1.46728378      0.87274415      1.38366387
H       0.62799802     -0.93456915      1.19302729
H       1.54468599      0.21358044     -1.35402086
