15
b3lypvtz=-193595.03063804
C       2.08845640     -0.61349380     -0.36144240
C       0.84819382     -0.16636508     -0.24893138
C       0.30920902      1.20404900      0.15657440
C      -1.18624324      0.83777248      0.04258524
C      -1.29392434     -0.52713577      0.74982520
C      -0.45239564     -0.89491716     -0.49596932
O      -1.21726022      0.12393740     -1.24006250
H       2.29355835     -1.63089309     -0.67098836
H       2.94448616      0.01571183     -0.15214381
H       0.57922854      1.98691093     -0.55193675
H       0.61095762      1.51308300      1.15875227
H      -1.93113368      1.62278096      0.13381214
H      -0.85574413     -0.65276836      1.73995301
H      -2.29834377     -0.93917976      0.69306527
H      -0.43904488     -1.87949257     -0.95299303
