14
b3lypvtz=-224590.61511711
C       1.63573052      1.40535948     -0.00000700
C       1.55829780     -0.09820366     -0.00000337
N       2.53509396     -0.92213282      0.00002693
N       0.29111727     -0.63801688     -0.00004312
N      -0.83586307      0.12562369     -0.00001455
C      -1.96245278     -0.45092159     -0.00001261
O      -3.12016641      0.24747676      0.00002463
H       2.67774183      1.71675555      0.00000704
H       1.13520182      1.81985372      0.87550827
H       1.13522600      1.81984929     -0.87553815
H       3.42142334     -0.42943307      0.00004231
H       0.23714962     -1.64936489     -0.00001691
H      -2.13152675     -1.52558595     -0.00000220
H      -2.89593614      1.18854639      0.00003072
