12
b3lypvtz=-226250.22137549
O       2.33968638      1.82886526      0.28654077
C       1.45168558      1.00547020      0.34584551
C       1.13599831      0.08285096     -0.74252256
C       0.12273735     -0.80190732     -0.79078479
N      -0.96875768     -0.90311112      0.05790536
C      -1.63864132      0.11931280      0.70727778
O      -2.59888850     -0.07017702      1.40956024
H       0.87015579      0.88379799      1.27974921
H       1.84883326      0.07164873     -1.55653743
H       0.11017638     -1.53812130     -1.58621179
H      -1.44799178     -1.79201951      0.10006292
H      -1.22509377      1.11349033      0.48911477
