12
b3lypvtz=-200532.02179269
C       2.31430409     -1.03847370     -0.11808668
C       1.35691390      0.10342709      0.07777606
N       1.61574039      1.34429356      0.12943793
N       0.02392635     -0.33422205      0.29623016
C      -0.90588518      0.32255130     -0.26167725
C      -2.28240544     -0.02791877     -0.04379645
N      -3.40179719     -0.26514586      0.08737888
H       2.30933094     -1.67736224      0.76634136
H       1.99819770     -1.65952831     -0.95856039
H       3.32475218     -0.67812116     -0.30029044
H       2.61226461      1.51668248      0.01087110
H      -0.72210634      1.17799666     -0.91446529
