17
b3lypvtz=-215267.96083544
C      -3.04490157      0.25686243      0.45880515
N      -2.02929779     -0.43933323     -0.31485679
N      -0.78022099      0.10350759     -0.20758386
C       0.25170724     -0.61021479     -0.40066159
C       1.61652946      0.02692554     -0.36375074
C       2.54698037     -0.68657089      0.61658838
O       1.53914141      1.39905590     -0.03214676
H      -2.87472397      0.21665589      1.54134141
H      -4.01382027     -0.18939124      0.23660978
H      -3.06765297      1.30123188      0.15211839
H      -2.04493788     -1.44746407     -0.18487641
H       0.19415536     -1.68177761     -0.61546636
H       2.04878225     -0.07161787     -1.37228984
H       3.52844358     -0.21342786      0.59874890
H       2.14884917     -0.61931880      1.62970443
H       2.66713770     -1.73922788      0.35096553
H       0.59759188      1.62324901     -0.00970962
