19
b3lypvtz=-171830.96214436
C       3.06062164      0.03104830     -0.05437075
C       1.62021380     -0.18827634      0.29484294
C       0.58894589      0.35471460     -0.34454433
C      -0.85784356      0.16831430     -0.03836947
C      -1.60085193      1.46677018      0.22650613
C      -1.32761164     -1.06719736      0.67948943
C      -1.60908105     -0.90875927     -0.79393286
H       3.61129018      0.45444975      0.79051731
H       3.16936238      0.70733556     -0.90300863
H       3.55552201     -0.91132742     -0.30668043
H       1.42967244     -0.84354805      1.14004752
H       0.79154510      1.02558425     -1.17855385
H      -2.66591250      1.28666685      0.38139722
H      -1.49824882      2.15452534     -0.61685088
H      -1.20904687      1.96768990      1.11445823
H      -2.15382584     -0.96190558      1.36985080
H      -0.59997898     -1.81011949      0.97290179
H      -2.62347261     -0.69557711     -1.10522753
H      -1.04782764     -1.52912142     -1.47900163
