16
b3lypvtz=-204439.2698669
C       2.73797526     -0.01975520     -0.06479935
C       1.36253429     -0.53388157      0.22737402
C       0.22675604      0.05002429     -0.15675385
C      -1.12425339     -0.48350317      0.17319437
C      -2.17574747      0.37502074      0.78576231
N      -2.21124541      0.07911381     -0.65116726
O       0.20475560      1.21514417     -0.86803702
H       3.27030168      0.24423435      0.85412203
H       3.34407955     -0.77548099     -0.57250931
H       2.70042768      0.86608087     -0.69615870
H       1.27290381     -1.44309543      0.80972972
H      -1.16014640     -1.53815997      0.41454806
H      -1.94684950      1.40411646      1.03050310
H      -2.90138754     -0.10280151      1.43236168
H      -2.91042047     -0.61484133     -0.88510502
H      -0.68968374      1.27778447     -1.24770033
