16
b3lypvtz=-202065.9047835
N      -2.48032441     -0.44287896     -0.01270612
C      -1.17003470     -0.02706615     -0.01898498
N      -0.82359322      1.19983720     -0.05648216
C       0.63615268      1.27180312     -0.00378598
C       1.15330499     -0.13434704      0.39593455
N       2.36332335     -0.50718157     -0.34164568
C      -0.04550335     -1.03683763      0.05922422
H      -3.14987774      0.25790621     -0.29027783
H      -2.66950048     -1.36650780     -0.36322411
H       0.95217877      2.04464947      0.70089270
H       1.03057256      1.54803273     -0.98808177
H       1.30135385     -0.14975706      1.48406965
H       3.08948997      0.18487617     -0.19191887
H       2.73639571     -1.38437841      0.00488303
H      -0.23486662     -1.81925093      0.79622934
H       0.10271164     -1.51633036     -0.91362101
