14
b3lypvtz=-224562.97671962
C      -1.62092330     -0.41710006     -1.38793774
C      -0.74264538     -0.15481449     -0.41736235
C      -1.09911906     -0.19160787      1.05033036
O      -0.37046666     -1.16158474      1.79262985
N       0.56163185      0.20523523     -0.82420534
N       1.35852220      0.40587892      0.11815375
N       2.60707679      0.69735174     -0.28934364
H      -2.63822809     -0.70014942     -1.16012937
H      -1.32653989     -0.35262006     -2.42606335
H      -0.96032696      0.80862124      1.47912265
H      -2.15130258     -0.45249028      1.15114267
H       0.55269038     -0.88568704      1.76620167
H       3.13797656      1.19901220      0.40275334
H       2.69165413      0.99985465     -1.25509251
