18
b3lypvtz=-181894.82559024
C      -2.15313796      0.82122810     -0.71657214
C      -1.04960090      0.10513647      0.01456095
C       0.22972113      0.28654094     -0.33043773
C       1.42876224     -0.32541379      0.27039117
C       2.66678551     -0.46146839     -0.54390128
N       2.61700210      0.52031928      0.54316086
C      -1.51749870     -0.80040260      1.12088357
H      -2.85261541      0.10897614     -1.16539659
H      -2.73967444      1.43973216     -0.02998412
H      -1.76794401      1.46293719     -1.50846371
H       0.43889080      0.97216676     -1.14958345
H       1.26498399     -1.06499944      1.04244830
H       3.33148548     -1.29983824     -0.37451633
H       2.63169708     -0.11091901     -1.56930632
H       2.46029719      1.45104201      0.16778243
H      -0.70419484     -1.27222042      1.66662553
H      -2.16042836     -1.59171680      0.72331120
H      -2.12453089     -0.24110038      1.83899768
