10
b3lypvtz=-220644.72123817
N       2.42256855      0.36994670      0.00002023
N       1.62660292     -0.58768144      0.00004336
C       0.27986573     -0.19467341     -0.00000187
N      -0.66525782     -1.13755107      0.00003194
N      -1.77868356     -0.44008796     -0.00005766
H      -2.68127798     -0.88560031      0.00020205
N      -1.65681232      0.88719749      0.00008291
C      -0.34527908      1.07109047      0.00000797
H       3.36659490     -0.03685734      0.00001370
H       0.09328066      2.05174487      0.00024238
