14
b3lypvtz=-203691.28778586
C      -0.74896387     -0.16055426     -1.03626558
C       0.47424002     -0.85543805     -0.34526506
C      -0.36461920     -0.75956919      0.97520468
C      -0.77945746      0.58839860      0.32423334
N       0.51739674      1.29288480      0.28605619
C       1.41363487      0.35643912     -0.16414988
O       2.60158254      0.46347483     -0.35964165
H      -0.56411536      0.43639032     -1.92813659
H      -1.58883670     -0.83812282     -1.18188356
H       0.93577274     -1.76771264     -0.70502739
H       0.17145743     -0.71027879      1.92181569
H      -1.16909907     -1.49231948      1.01506273
H      -1.60876791      1.20020791      0.66490696
H       0.70977524      2.24619963      0.53309015
