17
b3lypvtz=-215295.2171738
C      -2.67737208      0.56414875     -0.58132685
C      -1.90122062     -0.59899098      0.03188862
C      -0.73695451     -0.15587460      0.92479613
N       0.30027684      0.60447609      0.21800110
C       1.55446828      0.09328931     -0.09160906
N       2.65213543      0.71992391     -0.17937327
O       1.56344091     -1.24335203     -0.35433478
H      -3.49100406      0.20710575     -1.21341525
H      -3.11476970      1.19592591      0.19577582
H      -2.02667378      1.18750246     -1.19580536
H      -2.57101930     -1.22031696      0.63351415
H      -1.52368405     -1.24573914     -0.76783401
H      -0.28058724     -1.02431594      1.40312702
H      -1.12449213      0.47300134      1.73005326
H       0.31735414      1.59093494      0.41286930
H       2.55950749      1.68004800      0.13777205
H       0.68485639     -1.53449680     -0.61971987
