16
b3lypvtz=-204432.75652564
C       2.05716095      0.14078619     -0.96181453
C       1.40858525     -0.08041403      0.17575458
C      -0.06218344      0.01057492      0.38393413
C      -0.90580594     -1.25370082      0.31515505
C      -1.05174094     -0.18876803     -0.74050976
O      -2.18831690      0.61441034     -0.77500068
N      -0.51780837      0.97770114      1.36907494
H       3.13423168      0.05664866     -1.02040878
H       1.53781800      0.40961330     -1.87309892
H       1.97837031     -0.33895225      1.06668171
H      -1.71414520     -1.34374238      1.02939581
H      -0.40392343     -2.17648630      0.05830543
H      -0.68178278     -0.40450350     -1.73288869
H      -2.18636731      1.09561458      0.06861611
H      -0.40341338      0.63639198      2.31591655
H      -0.00067847      1.84482619      1.28420626
