18
b3lypvtz=-205216.05255573
C       2.96635003      0.66211128     -0.09798971
C       1.90466680     -0.38859921     -0.07422154
N       0.72100096     -0.16115979      0.30195120
C      -0.25043761     -1.24959158      0.28932747
C      -1.52552882     -0.85669108     -0.46523476
C      -2.23869314      0.36033300      0.12301100
O      -1.51838273      1.56979282     -0.04486586
H       2.57467162      1.61642391      0.24790690
H       3.80700267      0.36631913      0.53546107
H       3.36246506      0.77945141     -1.11017135
H       2.20514632     -1.39387942     -0.40418686
H      -0.51369299     -1.46016523      1.33109460
H       0.17876327     -2.16795862     -0.13522045
H      -2.20752536     -1.71215923     -0.44457303
H      -1.28674779     -0.65772647     -1.51338163
H      -3.19859078      0.50003084     -0.37798387
H      -2.45386871      0.17450864      1.18623836
H      -0.60384678      1.38192958      0.21807546
