17
b3lypvtz=-171063.76348303
C       3.01910769     -0.00004420     -0.14492870
C       1.84794762      0.00003047      0.12032528
C       0.42519275     -0.00000493      0.42659626
C      -0.35816445     -1.20274443     -0.14329064
C      -1.83511764     -0.77829413     -0.02905871
C      -1.83514707      0.77831371     -0.02917490
C      -0.35815621      1.20274747     -0.14326559
H       4.05452879     -0.00003171     -0.37710720
H       0.30886488     -0.00001806      1.51653962
H      -0.07346053     -1.33982151     -1.18827472
H      -0.13414869     -2.13151508      0.38021500
H      -2.26817039     -1.15572942      0.89819615
H      -2.43164212     -1.18977727     -0.84273313
H      -2.26836619      1.15588296      0.89794674
H      -2.43156173      1.18965868     -0.84300002
H      -0.13415443      2.13147934      0.38030982
H      -0.07336929      1.33992312     -1.18821226
