11
b3lypvtz=-236322.25326907
C      -0.93152122     -1.15757063      0.44375917
C      -1.23975730      0.11143809      0.12870577
O      -0.06786622      0.85763626      0.15081814
C       0.88263413     -0.05471839      0.49171216
N       0.44737846     -1.25612225      0.66350855
N       2.15210746      0.43139451      0.69052226
O      -2.35877940      0.72862094     -0.28267332
H      -1.58895417     -2.00498595      0.51680538
H       2.83673594     -0.30599254      0.75410121
H       2.42593970      1.17110147      0.06168536
H      -2.55791738      1.47919849      0.29052486
