18
b3lypvtz=-205220.73681983
C      -0.47955876     -1.08869386     -1.04408912
C      -0.44644293     -0.09245639      0.11923461
C      -0.85583591      1.30423273     -0.36126109
C       0.98191647     -0.06684423      0.76065230
C       2.09767868      0.33168209     -0.16862408
O       2.95117373     -0.41968994     -0.57063803
N      -1.45061722     -0.52662432      1.09914924
H       0.21375004     -0.80392275     -1.83579236
H      -1.48585617     -1.13671791     -1.45916190
H      -0.20070862     -2.08983668     -0.70818347
H      -0.19513417      1.67332127     -1.14620753
H      -1.87182380      1.27180277     -0.75357944
H      -0.83486723      2.02354894      0.46118425
H       1.21241481     -1.05679545      1.15706314
H       0.96253223      0.64742363      1.59082846
H       2.10228526      1.39534080     -0.48683732
H      -1.46250583      0.09113948      1.90344409
H      -1.23840057     -1.45691020      1.44281826
