15
b3lypvtz=-214539.46559676
N      -2.47476512     -0.16840195     -0.54178016
C      -1.84936250     -0.54907423      0.63626015
C      -0.59760647     -0.28194202      1.03096019
C       0.39315562      0.56283683      0.29206072
N       1.46392895     -0.24727830     -0.29484911
C       2.74652226      0.17420679     -0.39885229
O       3.15830973      1.26511925     -0.05876797
H      -3.47810320     -0.10330447     -0.49943695
H      -2.06234988      0.59736285     -1.05006369
H      -2.46945884     -1.17947841      1.26271437
H      -0.26334573     -0.72455746      1.95983389
H       0.88067997      1.27645503      0.95692843
H      -0.08850629      1.15724349     -0.49118017
H       1.23719803     -1.17914054     -0.60070954
H       3.40370346     -0.60014687     -0.83511786
