14
b3lypvtz=-203689.25294206
C      -2.46968747     -0.29600028      0.51905440
C      -1.57042088      0.42342130     -0.49715515
C      -0.11569451      0.27321643     -0.21333996
C       0.87123371      1.15037610      0.10963048
C       2.02178711      0.33194156      0.24607969
N       1.76472711     -0.92827566      0.02771270
O       0.39532901     -0.97243830     -0.26718442
H      -3.51927209     -0.16510504      0.25409140
H      -2.32013006      0.10083109      1.52379312
H      -2.25427393     -1.36364208      0.54168241
H      -1.77325365      0.03713942     -1.49978628
H      -1.80006395      1.48937690     -0.51661182
H       0.79189274      2.21591728      0.23031686
H       3.03091685      0.62130129      0.49634058
