14
b3lypvtz=-203696.58195779
C      -1.29895660      1.70676107     -0.12588629
C      -0.69851525      0.36057638      0.33029801
C      -1.66042136     -0.72613252      0.08880071
N      -2.41813784     -1.56884846     -0.11208763
C       0.62107253      0.06051337     -0.33535386
C       1.74680845     -0.10291869      0.34860456
O       2.93932255     -0.34550812     -0.26523227
H      -2.25276254      1.89632353      0.36614320
H      -1.46353356      1.70792002     -1.20321909
H      -0.60684621      2.51168077      0.11826802
H      -0.54395533      0.40039971      1.41246736
H       0.63365598     -0.01388084     -1.41613808
H       1.76924166     -0.04778216      1.43300242
H       3.62912951     -0.45796706      0.39353292
