15
b3lypvtz=-191213.19555098
C       1.65539506      1.29258650     -0.11697965
C       1.39134905     -0.19331299      0.06251931
C       0.45344398     -0.84116859     -0.98938862
C      -0.63511141     -0.88499736      0.12356060
C      -1.70067090      0.10729189     -0.02393433
N      -2.53004383      0.90121293     -0.11551803
N       0.40822764     -0.55639170      1.12410663
H       2.13889250      1.70670635      0.77075483
H       0.73096921      1.84645055     -0.29246297
H       2.32188890      1.46344256     -0.96544892
H       2.33789788     -0.71946339      0.20313967
H       0.21782405     -0.23785143     -1.86198663
H       0.75786023     -1.83623685     -1.30341130
H      -1.10095586     -1.85817608      0.29009512
H       0.16883548      0.18114161      1.77577730
