15
b3lypvtz=-214474.76815263
C      -2.19109996     -0.19963746     -0.66481156
N      -1.12612794     -0.21632664      0.32763367
C      -0.69999769      1.06513092      0.85455499
C       0.16970785      0.31297814     -0.10298674
C       1.36659295     -0.41858335      0.34251757
N       2.39392657     -0.45187588     -0.40190217
O       3.43576141     -1.18256557      0.19271550
H      -3.15456789     -0.21359499     -0.15344635
H      -2.11948101     -1.09375139     -1.28464938
H      -2.15898951      0.68289491     -1.32007006
H      -0.45618157      1.09009376      1.90990237
H      -1.17337274      1.96429806      0.47061562
H       0.23813006      0.71865597     -1.10728238
H       1.34329480     -0.92327156      1.30733020
H       4.13240468     -1.13444493     -0.46941492
