20
b3lypvtz=-205974.11079484
C       2.37010771     -0.97042673     -0.28887748
C       1.43577452      0.04324761      0.37533634
C      -0.01803017      0.00588795     -0.12470651
C      -0.75762628     -1.25286718      0.37697173
N      -2.05101046     -1.56410519     -0.23219436
C      -0.77946693      1.27170861      0.28049069
O      -0.32565152      2.45724960     -0.36641787
H       2.05785067     -1.99951341     -0.10812652
H       3.38821519     -0.86915381      0.09027699
H       2.40288933     -0.81926551     -1.36990765
H       1.44264684     -0.10270126      1.46133645
H       1.85025592      1.04133312      0.20287832
H      -0.00510319     -0.02129367     -1.22097840
H      -0.90990550     -1.16960290      1.45809792
H      -0.11755408     -2.12454285      0.23344183
H      -2.73252917     -0.83752040     -0.05517257
H      -1.96279590     -1.64799024     -1.23820981
H      -0.74852323      1.38732322      1.37267643
H      -1.82774849      1.18293348     -0.00602977
H       0.54209373      2.68551955     -0.02218579
