14
b3lypvtz=-224564.74465853
N       2.85432423      0.94247976      0.11517720
C       2.51329974     -0.26226829      0.13856076
O       1.26604402     -0.83533385      0.01452739
N       0.23899827      0.11982062     -0.15876390
C      -0.88640772     -0.45326506     -0.26596393
C      -2.12245709      0.36762289     -0.46467424
N      -3.11069589      0.01337753      0.55639907
H       2.04815999      1.55110703     -0.01852896
H       3.22634532     -1.07107545      0.27095211
H      -0.98796058     -1.53495512     -0.19895734
H      -1.84352916      1.42628802     -0.50144252
H      -2.54523730      0.10677960     -1.43951393
H      -4.02020393      0.38768878      0.31851647
H      -2.85045591      0.40342654      1.45425685
