14
b3lypvtz=-227001.69766146
C      -1.29209538     -0.84998622      0.61657156
C      -0.60909230      0.38905908      0.13739972
C      -1.14880327      1.39206740     -0.53790801
O       0.73035834      0.48718994      0.53756289
C       1.68167655     -0.20043064     -0.18553870
N       1.58645328     -0.75166036     -1.30918125
O       2.83491776     -0.20206549      0.50189680
H      -0.79444358     -1.74214887      0.23098734
H      -1.25433295     -0.90200085      1.70700366
H      -2.33325703     -0.86661092      0.30081769
H      -2.19490194      1.37367028     -0.80554590
H      -0.56064193      2.25262614     -0.82153020
H       0.66817609     -0.61880956     -1.71911738
H       2.68618635      0.23910007      1.34668179
