12
b3lypvtz=-179563.3303925
C       3.88123147     -0.63702695      0.03657933
C       2.68111896     -0.55165832     -0.04214996
C       1.32557037     -0.45519863     -0.13001107
C       0.12208200     -0.36280147     -0.20992636
C      -1.30425924     -0.28246528     -0.29204202
C      -1.99779844      1.00033133      0.03402296
N      -2.11320460     -0.13772549      0.94279399
H       4.93757421     -0.71300803      0.10501031
H      -1.76004854     -0.93481799     -1.02765238
H      -2.90231330      1.25094220     -0.50554659
H      -1.37775035      1.84073757      0.31860670
H      -1.49220255     -0.01730895      1.73695505
