14
b3lypvtz=-180319.6938854
C       0.90445925     -1.42470303      0.27115030
C       1.14445333     -0.03582045     -0.36777978
C       0.40312119      0.99149570      0.50675820
C      -0.83831100      0.24425013      0.83900515
C      -0.59483980     -1.08282269      0.09777897
C      -0.23994352     -0.12639140     -1.08447456
N      -0.80058141      1.11714020     -0.38246416
H       1.21207842     -2.23237280     -0.39578540
H       1.28399655     -1.60753360      1.27786049
H       2.07359686      0.24922980     -0.85044961
H       0.79210344      1.82992581      1.06628299
H      -1.48701644      0.45818716      1.67613181
H      -1.38096725     -1.83047288      0.07423906
H      -0.41814964     -0.30001197     -2.14055345
