17
b3lypvtz=-171064.42310843
C       3.90275625      0.36898135      0.03309748
C       2.49386559      0.01651728     -0.05305062
C       1.32434620     -0.26809042     -0.11752999
C      -0.04168193     -0.64079847     -0.22379636
C      -1.05626365     -0.02651337      0.39536758
C      -2.49473465     -0.42112770      0.27372424
C      -3.37653713      0.69980496     -0.29528021
H       4.51512426     -0.30740144     -0.56660783
H       4.26041514      0.31679478      1.06393859
H       4.07829780      1.38519616     -0.32722604
H      -0.25585717     -1.49581604     -0.86024942
H      -0.83871403      0.82912891      1.02826492
H      -2.87529830     -0.69486266      1.26423169
H      -2.57943117     -1.31412749     -0.34998415
H      -3.06310321      0.96849708     -1.30494756
H      -4.42212543      0.39039783     -0.33438781
H      -3.31749255      1.59861126      0.32154148
