13
b3lypvtz=-239644.46355546
C       2.09630001     -0.04553615     -1.05074054
N       2.10087745     -0.29310980      0.19476806
N       0.89864355     -0.40056756      0.87027780
C      -0.30454028      0.05274517      0.35766544
F      -0.42184303      1.42268651      0.19434692
C      -1.34964738     -0.70456176      0.02667559
N      -2.58922816     -0.23010902     -0.36598217
H       3.05745277     -0.01532430     -1.54703084
H       1.19593895      0.13061481     -1.63777285
H       1.05495179     -0.29992347      1.86052481
H      -1.25032979     -1.77449500      0.13427826
H      -3.11047514     -0.83473969     -0.97891772
H      -2.60454173      0.73428426     -0.65976976
