14
b3lypvtz=-222230.11233385
N      -1.30533145      1.28079745     -0.02514537
C      -1.20153136     -0.00952881      0.00581830
N      -2.28440592     -0.87204287      0.05685453
N      -0.01268901     -0.71187472      0.03983012
C       1.13621588     -0.09529058      0.00877062
N       1.33146554      1.24076582      0.06160782
N       2.26900597     -0.87573035     -0.09696715
H      -2.27353768      1.58529985     -0.04333817
H      -2.07297250     -1.82609798     -0.18356103
H      -3.16421462     -0.52475363     -0.28443345
H       0.45961401      1.77633916     -0.01125564
H       2.19844150      1.61982896     -0.27734505
H       2.08701759     -1.85337021      0.06255089
H       3.10018205     -0.52825010      0.35355157
