16
b3lypvtz=-181135.57512078
C       1.20810896     -1.05899312     -0.29614402
C       1.73278030      0.14212069      0.45384354
C       0.90421036      1.18287813      0.41389541
C      -0.34739666      0.89286671     -0.36294808
C      -1.61539101      0.52836743      0.45446240
N      -1.23107898     -0.90374981      0.38279670
C      -0.21928811     -0.63015521     -0.67251214
H       1.18645385     -1.95979915      0.32284539
H       1.82367831     -1.28332626     -1.17402449
H       2.68739114      0.13816379      0.96400151
H       1.09405878      2.14063145      0.88146796
H      -0.51131881      1.58449578     -1.18966703
H      -1.68186704      0.92217778      1.47109946
H      -2.53693022      0.77722781     -0.08187946
H      -1.97554260     -1.53131190      0.10851367
H      -0.51796829     -0.94189411     -1.67575083
