13
b3lypvtz=-239680.82582812
N       0.23456564     -1.76934866     -0.05221287
C       0.69877777     -0.59183952     -0.01826264
F       2.04823058     -0.37960073      0.04702428
C      -0.05682023      0.64124731      0.00498440
N       0.68163469      1.85480863     -0.12559958
C      -1.41450967      0.61922116      0.06849071
N      -2.21807257     -0.47859801     -0.03455547
H       0.97204530     -2.46673223     -0.01157639
H       1.42522609      1.92916547      0.55683972
H       0.08119071      2.66362092     -0.04499469
H      -1.93889836      1.56563492      0.14506069
H      -1.75045323     -1.37623435      0.02003060
H      -3.15093370     -0.41091092      0.33085623
