18
b3lypvtz=-205198.85626101
C      -1.85668681     -1.20727687      0.16391514
C      -1.02168380     -0.22948578     -0.62586208
C       0.26824018      0.36582136     -0.18573850
N       0.23601180     -0.64364121     -1.28035081
C       0.61267293      1.76619213     -0.64500071
C       0.89951334     -0.03243364      1.13080961
O       2.32521492      0.02846740      1.10026213
H      -2.55926438     -0.68222636      0.81498864
H      -2.44233917     -1.83154202     -0.51458222
H      -1.25585646     -1.87093564      0.78501616
H      -1.61984318      0.40877401     -1.27046345
H       0.50341292     -1.55561843     -0.91536992
H       0.22135865      1.94439663     -1.64545708
H       0.18754130      2.50959228      0.03383032
H       1.69302155      1.91018333     -0.66610148
H       0.60125329      0.66659825      1.91471695
H       0.57022298     -1.03038371      1.43507853
H       2.63720994     -0.51648173      0.37030875
