14
b3lypvtz=-224632.96121344
C      -2.91487616      0.22750660     -0.00509136
N      -1.46934417      0.20911465      0.00341458
C      -0.73063334     -0.90388025      0.00663730
N       0.56335872     -1.01910736      0.00914655
C       1.33489706      0.14073497      0.00908132
N       2.66616140     -0.13778695     -0.00205519
O       0.92610381      1.30818641      0.01104284
H      -3.29885260      0.72397494     -0.89880304
H      -3.30775880      0.74615865      0.87182913
H      -3.29234515     -0.79491736      0.00591469
H      -0.92176357      1.06868793      0.00255734
H      -1.30690147     -1.82910025      0.00737263
H       3.32197822      0.61917781      0.05016504
H       2.97559606     -1.09005780      0.05115618
