11
b3lypvtz=-213012.98789545
N       2.57471025      0.33224990      0.00000425
C       1.64927720     -0.53640625      0.00005005
C       0.20947698     -0.29322672      0.00007758
N      -0.73722924     -1.18091442     -0.00008831
C      -1.90901685     -0.45062874      0.00004966
C      -1.60624234      0.86848084     -0.00005337
O      -0.24880827      0.98960334     -0.00016656
H       2.18973554      1.27899341     -0.00005333
H       1.90773962     -1.59370526      0.00005730
H      -2.87687308     -0.92109872      0.00005218
H      -2.17686081      1.77876462      0.00010156
