12
b3lypvtz=-202915.28234281158
C       1.95255460      0.18842381     -0.01414594
N       0.65775225     -0.03304696     -0.00990120
C      -0.06149845     -1.17951806     -0.06186341
C      -1.45641300     -0.86410654     -0.02778754
O      -2.43383496     -1.59797659     -0.05455747
C      -1.50370575      0.65085263      0.05314737
C      -0.26110187      1.10223782      0.06170239
H       2.30249321      1.20448372      0.03549586
H       2.63365666     -0.64456424     -0.06679539
H       0.41403990     -2.14136082     -0.11884657
H      -2.41285832      1.22689550      0.09492528
H       0.16891574      2.08767974      0.10862661
