18
b3lypvtz=-181881.14950444
C      -1.39883098      1.20249618      0.40276312
C      -0.43490091      0.07826993      0.05252971
C      -1.14808677     -1.26480970      0.06259699
C       0.46657917      0.42682637     -1.17199889
C       1.62222241      0.52945446     -0.18832308
C       1.80645271     -0.72715716      0.55046995
N       0.75076178      0.19135633      1.00877597
H      -0.87687437      2.15881938      0.44764365
H      -1.85110462      1.02256597      1.37960367
H      -2.19480858      1.27575720     -0.34158562
H      -0.49496214     -2.09204301     -0.21332455
H      -1.55273941     -1.46792697      1.05635715
H      -1.98011041     -1.25523568     -0.64481230
H       0.57253649     -0.33082558     -1.95043885
H       0.19305901      1.37153768     -1.63825413
H       2.34182904      1.33721942     -0.14860062
H       1.54879168     -1.67186651      0.08631928
H       2.63018591     -0.78453831      1.25037853
