15
b3lypvtz=-271150.63892669
C      -1.66738880      1.17768228     -0.61636344
C      -1.22570285      0.02187686      0.27488086
O      -2.27075420     -0.93958035      0.42488966
C       0.05413647     -0.67595994     -0.20538417
C       1.28858325      0.19270055     -0.20957447
F       1.54633333      0.66234881      1.05367355
F       2.37568855     -0.54833207     -0.59136567
H      -2.60650139      1.58850165     -0.24726066
H      -1.82152197      0.84058681     -1.64579806
H      -0.93067305      1.98275996     -0.63374043
H      -1.05613253      0.39437109      1.28577316
H      -2.52227139     -1.25959683     -0.44842718
H      -0.08742084     -1.05443284     -1.22222917
H       0.25358414     -1.53093427      0.44218354
H       1.23755928      1.05817329     -0.87268251
