15
b3lypvtz=-216905.87500747
O      -2.62958341      0.92344886     -0.12916213
C      -1.46571509      0.16925548     -0.33939682
C      -1.04230574     -0.84934028      0.68246441
C      -0.30484078      0.46900336      0.56000395
C       1.07830150      0.57385695      0.03628460
C       1.98143964     -0.40228650      0.07345057
O       3.26009176     -0.34797204     -0.39696938
H      -3.39201475      0.35998598     -0.29725630
H      -1.23733273     -0.04457892     -1.37940044
H      -0.56791914     -1.75615667      0.33427191
H      -1.67977395     -0.97031198      1.54734396
H      -0.56139318      1.18750683      1.33188320
H       1.35862922      1.53302904     -0.39490818
H       1.77392381     -1.37349372      0.50239709
H       3.42859285      0.52805360     -0.76300645
