18
b3lypvtz=-205225.92350566
C      -1.06533913      1.24386797      0.11145333
C      -0.85565621     -0.23850334      0.42503673
C      -2.02965328     -1.08533985     -0.07244124
C       0.46214765     -0.76566606     -0.16241100
N       1.62301652     -0.12141363      0.42661366
C       2.47164613      0.41412761     -0.32792174
O       3.58277937      1.02459118      0.13436070
H      -1.99277218      1.60971660      0.55561643
H      -1.12829000      1.40923013     -0.96815814
H      -0.24640170      1.85098160      0.49718089
H      -0.78278334     -0.35062834      1.51116580
H      -2.96891114     -0.75108771      0.37110614
H      -1.89811036     -2.13952095      0.18014229
H      -2.13510695     -1.01336183     -1.15836655
H       0.53139372     -1.83606513      0.05276603
H       0.44072896     -0.65671465     -1.25814832
H       2.42946644      0.45647149     -1.41815763
H       3.56184551      0.94931493      1.10016261
