14
b3lypvtz=-201292.4029401
N      -2.44653516     -0.37851967     -0.47120045
C      -1.70052635      0.48617610      0.06681828
C      -0.29361705      0.27687014      0.57817361
C       0.76321450      1.19528527     -0.11192143
N       1.89642429      0.26513244     -0.22532879
C       1.37218767     -1.00340652     -0.07655607
N       0.18387167     -1.10088617      0.37250358
H      -1.95140102     -1.27489686     -0.50398633
H      -2.08932216      1.50175526      0.18738787
H      -0.29902902      0.48166829      1.65646465
H       1.02023871      2.06866272      0.48433959
H       0.42305970      1.53033822     -1.09727490
H       2.58879469      0.42035651     -0.94142175
H       1.99278752     -1.86241775     -0.30561886
