15
b3lypvtz=-214510.79140075
C       2.29766361      0.38126456      0.45264860
N       1.53577143     -0.85179299      0.34519793
C       0.35592118     -0.81901313     -0.04970512
O      -0.45331040     -1.92834683     -0.21717220
C      -1.60910522     -1.10688162     -0.55428555
C      -0.73338608      0.17131615     -0.48650782
N      -1.01640444      1.26574884      0.41114148
H       1.73194880      1.28398094      0.20752883
H       2.67715194      0.47745783      1.47174524
H       3.16871611      0.31608188     -0.20280085
H      -2.01851601     -1.38310229     -1.52570647
H      -2.37680375     -1.17161612      0.21850951
H      -0.52810798      0.57869030     -1.47744190
H      -1.26062135      0.94014007      1.33842031
H      -1.77121783      1.84617241      0.06832799
