18
b3lypvtz=-181880.40338313
C       2.58540247      0.10350371      0.41363322
C       1.53034593      0.31599905     -0.67304821
C       0.17877398     -0.22843459     -0.28222735
C      -1.05381895      0.37719412     -0.81409311
N      -0.60085297      0.64141076      0.61809963
C      -1.77282657     -0.18318904      1.08244553
C      -2.29909524     -0.37347523     -0.36170081
H       3.55087512      0.51210749      0.11179494
H       2.28316675      0.59333107      1.33971609
H       2.72705752     -0.95896828      0.62495735
H       1.84833774     -0.16257221     -1.60445710
H       1.42890032      1.38300699     -0.88447333
H       0.16384990     -1.29579427     -0.06424206
H      -1.02940415      1.15683942     -1.56603648
H      -1.47834513     -1.08270894      1.62714892
H      -2.42482713      0.41705067      1.71336269
H      -2.41685368     -1.39106519     -0.73778340
H      -3.22068590      0.17576445     -0.54309651
