15
b3lypvtz=-216925.2660103
C      -2.21174326     -0.79149609     -0.05534503
C      -1.25931261     -0.07260304     -0.63126942
C       0.03582513      0.33100375      0.04972862
C       0.24475383      1.85309872     -0.05148985
O       0.06333058     -0.06271110      1.40081101
C       1.16856700     -0.36923431     -0.69642695
O       1.92389687     -1.13275470     -0.14987409
H      -3.12115793     -1.04074412     -0.58536725
H      -2.10815838     -1.13441509      0.96469350
H      -1.37741972      0.27588465     -1.65265198
H       0.22855074      2.19386402     -1.08806293
H      -0.55803994      2.35224022      0.48966217
H       1.19669485      2.13192064      0.40040154
H       0.78252203     -0.70839681      1.48511265
H       1.25931081     -0.13860474     -1.77379297
