15
b3lypvtz=-193558.2078048
O       2.45047972      0.88784613     -0.42885244
C       1.05876032      0.69592019     -0.37770849
C       0.60569236     -0.74238472     -0.39752409
C      -0.92478197     -0.93874850     -0.25144467
C      -1.71205597      0.33777629     -0.13927262
C      -0.90600791     -0.13684011      1.03905008
C       0.62464144      0.05624705      0.89969655
H       2.73781019      0.76764282     -1.33976388
H       0.48999750      1.48885698     -0.85019390
H       1.28542033     -1.52622850     -0.69703443
H      -1.40678561     -1.88745301     -0.43611296
H      -1.47237276      1.23142769     -0.69717997
H      -2.77778922      0.18232427     -0.02560861
H      -1.37235676     -0.38443729      1.98094495
H       1.31934832     -0.03194931      1.72100449
