12
b3lypvtz=-223836.56984501
C       2.02073922     -0.25287204     -0.33141810
N       0.62277880      0.06468617     -0.13992838
N       0.21484898      1.19925404      0.39615730
C      -1.11565987      1.10879249      0.39749872
C      -1.45643635     -0.12951905     -0.16204074
O      -2.69373708     -0.62812918     -0.35174911
N      -0.35059575     -0.77994800     -0.49758880
H       2.59777618      0.58914991      0.03738285
H       2.28017194     -1.15419046      0.22316283
H       2.22779510     -0.41217046     -1.38923278
H      -1.74149701      1.89454185      0.77983458
H      -2.60618417     -1.49979528     -0.75617837
