18
b3lypvtz=-181882.3540528
C      -1.68496436     -1.78932931      0.04352177
C      -1.01913509     -0.78958704      0.03715538
C      -0.17120776      0.42365195      0.00110879
C      -0.88141279      1.50790865     -0.82711319
C       0.05353483      0.93505306      1.43467046
N       1.12979145      0.17036040     -0.64734722
C       1.96258012     -0.88518109     -0.07722997
H      -2.27856400     -2.66909415      0.05357395
H      -1.85308051      1.74796812     -0.39746847
H      -0.26468980      2.40621321     -0.84963637
H      -1.04099336      1.16765463     -1.85154798
H       0.71109429      1.80435075      1.40713928
H      -0.89691207      1.21948945      1.88487877
H       0.50530299      0.17218963      2.06649195
H       0.95840468     -0.03502616     -1.62433556
H       1.44491262     -1.84474026      0.05286898
H       2.81555935     -1.04302112     -0.73711802
H       2.35674939     -0.57641172      0.89099745
