13
b3lypvtz=-216087.37461658
C       0.37431197      0.72612012     -0.46411209
C      -0.66854219      1.17624214      0.55814550
C      -0.71149952     -0.35598552      0.70413927
C       0.82118188     -0.47348578      0.42965231
O       0.67465654     -1.47016945     -0.62918601
C      -0.44515575     -0.55006458     -0.81720784
O      -0.12057050      1.92693345      1.62469407
H       0.99670471      1.31545501     -1.13202939
H      -1.56882769      1.65020171      0.15498444
H      -1.31246202     -0.99277742      1.34937904
H       1.65172293     -0.55673732      1.12205321
H      -1.14204356     -0.72752336     -1.63126281
H      -0.80697679      2.08849099      2.27885031
