19
b3lypvtz=-171832.81933395
C       1.76070055      1.39094632      0.00022201
C       1.32692406     -0.04982978      0.00001988
C       2.45897343     -1.04255368     -0.00011070
C       0.05495936     -0.46095015     -0.00005247
C      -1.17236805      0.35806087      0.00007774
C      -2.39608577     -0.13063929      0.74913471
C      -2.39606339     -0.13036164     -0.74919122
H       0.92912756      2.09175387      0.00047883
H       2.38025046      1.60609383     -0.87602713
H       2.38053805      1.60577577      0.87634397
H       2.09752876     -2.07064112     -0.00048506
H       3.10066858     -0.90797141      0.87663252
H       3.10095082     -0.90742618     -0.87656352
H      -0.12226661     -1.53447682     -0.00022975
H      -1.03332562      1.42991257      0.00028211
H      -2.99824992      0.60377882      1.26607289
H      -2.31896388     -1.08191332      1.25814408
H      -2.99821835      0.60424428     -1.26587365
H      -2.31893103     -1.08144892     -1.25854824
