15
b3lypvtz=-193580.89436189
C       1.46824137     -2.04823678      0.94164791
C       0.76171423     -1.17669617      0.51363537
C      -0.09366962     -0.13119534      0.01511259
C       0.20466290      1.26107838      0.52839117
O       1.44604955      1.70074312     -0.01077607
C      -1.54954696     -0.47752705     -0.25806674
C      -0.61599914     -0.25185556     -1.40510002
H       2.09925935     -2.81586044      1.31333902
H       0.23601914      1.24495817      1.62264922
H      -0.60851703      1.93052063      0.22142135
H       1.78774113      2.41200755      0.53772929
H      -1.85949127     -1.48857994     -0.04015170
H      -2.28693210      0.28138708     -0.03418360
H      -0.69803190      0.66720869     -1.96817432
H      -0.29139966     -1.10785234     -1.97757348
