15
b3lypvtz=-191226.3061127
C      -0.72296507      1.72386819     -0.00216295
C      -0.55268779      0.23114985     -0.33357293
C      -1.81942188     -0.47968046     -0.14121152
N      -2.81189894     -1.03753319      0.02632209
C       0.55880144     -0.47024167      0.49385681
C       1.93378411      0.08681264      0.22753271
N       2.90437207     -0.50314836     -0.33027850
H      -1.53579091      2.15553580     -0.58420144
H      -0.95149355      1.86161330      1.05498184
H       0.18850361      2.27200706     -0.23524405
H      -0.29764473      0.13407124     -1.39282194
H       0.55264997     -1.53834901      0.27047239
H       0.32111116     -0.35511410      1.55558479
H       2.11000157      1.11227162      0.55907029
H       2.65072694     -1.45764391     -0.59856358
