15
b3lypvtz=-214501.05366481
C      -3.08729558     -0.78858575     -0.24560067
C      -1.88450832     -0.54477689      0.26005632
C      -1.27588273      0.82323490      0.38808980
N      -0.00769788      0.99666261     -0.32641508
N       1.03782727      0.30560080      0.28106654
C       2.01731684     -0.06515485     -0.42334655
O       3.10501561     -0.66461882      0.11915843
H      -3.48117034     -1.79350536     -0.32489709
H      -3.72883545      0.01398112     -0.59289952
H      -1.26419712     -1.36861436      0.60001500
H      -1.07025417      1.05434175      1.43505287
H      -1.96814717      1.57900683      0.01141581
H      -0.11220076      0.74935325     -1.30841276
H       2.11456759      0.05394971     -1.50140139
H       2.95841521     -0.71266695      1.07440629
