9
b3lypvtz=-287181.77949894
C      -0.87854024     -0.20466239     -0.31639225
N      -1.35971750      0.23601468     -1.37493218
O       0.26670293      0.33196835      0.17723174
C       0.91765602     -0.05907740      1.34808133
O       0.59694852     -0.90915312      2.10513575
O       1.99803149      0.71320511      1.47321585
F      -1.37781963     -1.18825193      0.42619054
H      -2.21235338     -0.25294340     -1.62829604
H       2.04909180      1.33290011      0.73301834
