14
b3lypvtz=-227013.57202323
C       2.73402514     -0.19547004     -0.40878286
C       1.60148686     -0.46851653      0.59045120
C       0.25862314      0.04159943      0.14152261
O       0.14899828      1.38136695     -0.07347955
N      -0.72747728     -0.72268685     -0.03302465
C      -1.99910690     -0.31787577     -0.42569085
O      -2.89157399     -0.02269457      0.32611218
H       2.89258138      0.87136312     -0.58064818
H       3.67156021     -0.60329695     -0.03192563
H       2.52515846     -0.66035926     -1.37252148
H       1.83693106     -0.00515869      1.55431811
H       1.49703852     -1.53676061      0.76412454
H       0.98384109      1.82457497      0.11321429
H      -2.15074697     -0.39393921     -1.51836575
