11
b3lypvtz=-236323.02749654
C      -0.43624547      1.29004272     -0.17997455
C      -1.04706528      0.11068295      0.09649776
N      -0.03230947     -0.79318663      0.39625261
C       1.13339076     -0.08916031      0.27874693
N       0.94924235      1.14352895     -0.05898766
O       2.30361333     -0.71783475      0.51502501
O      -2.36714643     -0.21117851      0.10362314
H      -0.89104706      2.22425119     -0.45475979
H      -0.11402133     -1.76267585      0.64840840
H       2.99863537     -0.06108551      0.38239352
H      -2.49704676     -1.13338425      0.34026821
