15
b3lypvtz=-214516.34378027
C       0.00610971      2.06730538     -0.34912574
C       0.24094291      0.76110074     -0.22528265
N       1.20457856      0.16179214      0.57103228
C       1.96178041     -0.98543243      0.07400853
O      -0.54128749     -0.14793884     -0.92768915
C      -1.50343638     -0.86240485     -0.25002026
N      -1.84780927     -0.81098878      0.95424467
H       0.66261276      2.79580543      0.10318069
H      -0.85379026      2.41427921     -0.89829440
H       1.77798692      0.84588245      1.04067485
H       2.55260620     -0.75821922     -0.82062571
H       1.28779031     -1.80626858     -0.15890420
H       2.63344027     -1.31928774      0.86281834
H      -1.98374685     -1.53481514     -0.95411194
H      -1.30280579     -0.13799976      1.49192370
