16
b3lypvtz=-227766.89605477
C       1.95865892     -0.83199152      0.79901664
C       1.26823080     -0.29545276     -0.46061677
N       1.32951606      1.19310119     -0.43172541
C      -0.16547902     -0.74827540     -0.58578525
C      -1.19296291     -0.09389896     -0.02416117
O      -1.10926983      1.07770306      0.63631248
O      -2.46197431     -0.56064063     -0.07386062
H       3.01005317     -0.53087238      0.83925990
H       1.45574048     -0.46613951      1.69548073
H       1.91987292     -1.92061182      0.81125212
H       1.82038789     -0.67801309     -1.32688331
H       1.12983304      1.56577250     -1.35368648
H       2.25514691      1.51053239     -0.16856352
H      -0.37399513     -1.67426176     -1.09940687
H      -0.19001184      1.41768873      0.45929289
H      -3.03000514      0.11988796      0.30686363
