15
b3lypvtz=-214525.69879819
C      -3.39522027     -0.06936261      0.03337546
N      -2.03421832     -0.55557866      0.00446465
C      -1.09868291      0.29718717     -0.02695390
N       0.22247039     -0.04797655     -0.07789912
C       1.29976111      0.88817274      0.00731325
C       2.63644012      0.19365243      0.02467817
O       2.77693020     -1.00102938     -0.00002108
H      -3.47305059      1.02825016      0.03557866
H      -3.94518031     -0.44659576     -0.83279329
H      -3.90776642     -0.44827333      0.92133744
H      -1.27279211      1.38234874     -0.02632643
H       0.46250265     -1.02738934     -0.04041757
H       1.32301162      1.59418758     -0.83646513
H       1.26636032      1.51362142      0.91367548
H       3.50640553      0.87699141      0.06651741
