14
b3lypvtz=-203681.81606373
C       0.17318272      1.78188621     -0.00000385
C       0.11938039      0.25288564     -0.00000222
C       1.45579228     -0.32452876     -0.00000871
N       2.51220859     -0.78184558     -0.00000686
C      -0.87250875     -0.35212944     -1.03504203
O      -1.83207249     -0.64310687      0.00001132
C      -0.87249530     -0.35212762      1.03505172
H       0.69392628      2.15236065      0.88328193
H       0.69391902      2.15235939     -0.88329441
H      -0.84100494      2.18193799      0.00000010
H      -0.51342690     -1.25810527     -1.52806997
H      -1.26106165      0.34878298     -1.77560343
H      -0.51340687     -1.25810256      1.52807649
H      -1.26103839      0.34878625      1.77561691
