14
b3lypvtz=-201279.22400495
N       2.56902574      0.66291209     -0.29807362
N       1.69940471     -0.25013160     -1.00859205
C       0.47215887     -0.13028835     -0.66386237
C      -0.18091947      0.70932370      0.35688383
C      -1.46997344      0.37795891      0.43603638
C      -1.79633859     -0.71076606     -0.54590838
N      -0.54131430     -0.86404232     -1.25823024
H       3.48735970      0.23716700     -0.35561922
H       2.64296513      1.50391744     -0.86771100
H       0.35603052      1.42965427      0.94908597
H      -2.20569022      0.79851442      1.10554943
H      -2.61764450     -0.43156301     -1.21626915
H      -2.10471073     -1.62753455     -0.02519824
H      -0.31035342     -1.70502195     -1.75799134
