15
b3lypvtz=-191236.52692426
N      -2.22702045      0.73541435      0.46470745
C      -1.51724150     -0.25398805     -0.35570501
C      -0.03148195     -0.14467948     -0.17966202
C       0.66678549      0.97846566      0.20100918
N       2.00205671      0.66229344      0.21416719
H       2.74004794      1.29195376      0.47032508
C       2.17325636     -0.64659435     -0.15038167
C       0.92941129     -1.17381222     -0.39847548
H      -2.09758168      0.52431748      1.44794175
H      -3.22243259      0.69607913      0.28160067
H      -1.78442745     -0.05681865     -1.39917549
H      -1.81965870     -1.29210742     -0.15588200
H       0.31162524      1.95996173      0.45793484
H       3.15127413     -1.09289690     -0.19601115
H       0.72548716     -2.18758847     -0.70239333
