17
b3lypvtz=-217678.236001
C      -0.83935288      1.63041378      0.87443811
C      -0.53128247      0.46780474      0.30517440
C       0.61461985     -0.38823475      0.78808196
C       1.59489052     -0.81604380     -0.30736114
O       2.10668883      0.26956347     -1.07295519
C      -1.33061101     -0.05312389     -0.86261428
O      -1.79602750     -1.39178950     -0.66743421
H      -1.67877946      2.22305628      0.53173717
H      -0.26054125      2.03607291      1.69515328
H       0.22001168     -1.30522712      1.23776662
H       1.15120562      0.14259900      1.57973376
H       2.40866755     -1.39286806      0.14741116
H       1.09678919     -1.46890597     -1.02325529
H       2.51026675      0.90628650     -0.47487976
H      -2.16173731      0.62542569     -1.07750088
H      -0.70255465     -0.09514861     -1.75370943
H      -2.40225347     -1.38988066      0.08021374
