13
b3lypvtz=-190447.71150281
C       2.11066767      0.66887221     -0.37298728
C       0.84844892      0.31569615     -0.17221392
C       0.05636988     -0.24633140      0.99645489
C      -1.04401221     -0.56281517     -0.06965413
N      -0.28202102      0.27293869     -1.01280207
C      -2.40986001     -0.11822191      0.20029922
N      -3.48680091      0.21604365      0.42812785
H       2.45973850      1.00835659     -1.33848320
H       2.82165804      0.63326456      0.43877041
H      -0.25535263      0.49673867      1.72728899
H       0.47760505     -1.11162442      1.50080903
H      -1.06729696     -1.62485814     -0.32853845
H      -0.22914430      0.05194053     -1.99707134
