17
b3lypvtz=-171053.62563449
C      -2.38348955     -0.19693579     -0.00000194
C      -0.92320598      0.08673947     -0.00000078
C      -0.23722203      1.23230804      0.00000422
C       1.22818970      0.77990944      0.00000384
C       1.16692191     -0.36658850     -1.06381889
C       0.19289013     -0.97519518     -0.00000427
C       1.16691981     -0.36659702      1.06381732
H      -2.96667401      0.72444652      0.00000589
H      -2.67513044     -0.78334055     -0.87685563
H      -2.67512886     -0.78335445      0.87684295
H      -0.59718244      2.24998186      0.00000994
H       2.00997961      1.53513774      0.00000757
H       2.10170527     -0.92163289     -1.16168892
H       0.75347141     -0.12158298     -2.04166307
H      -0.09319048     -2.02496874     -0.00000876
H       0.75346712     -0.12159953      2.04166259
H       2.10170283     -0.92164244      1.16168494
