16
b3lypvtz=-204436.53006641
N       3.22242869      0.06849126     -0.18812650
C       1.95329749     -0.03786911      0.35519826
C       0.79061641      0.06036850     -0.29918133
C      -0.51857938      0.03186291      0.38632231
C      -1.61200219      1.06038754      0.00446412
C      -2.51876714     -0.16200070     -0.18323351
O      -1.39521172     -1.06185447     -0.05550371
H       3.95294698     -0.41980015      0.30303589
H       3.28568363     -0.04591136     -1.18793785
H       1.95021600     -0.15372952      1.43420879
H       0.77787664      0.16138532     -1.38090778
H      -0.37137294     -0.03211210      1.47077668
H      -1.38955425      1.58787744     -0.92169642
H      -1.89085421      1.78026491      0.77146190
H      -3.01946551     -0.26882082     -1.14750993
H      -3.25038051     -0.31318765      0.61730309
