11
b3lypvtz=-189726.42784773
N      -2.91009683     -0.00251945     -0.00016924
C      -1.75614880      0.04464357     -0.00013968
C      -0.34675568      0.09079457     -0.00006332
C       0.51865132      1.17091375     -0.00009910
C       1.83216890      0.65668290      0.00010635
C       1.73927958     -0.71899169      0.00008498
N       0.42061506     -1.05553082     -0.00009834
H       0.05023134     -1.98969551     -0.00005452
H       0.21927627      2.20453969     -0.00017308
H       2.74576414      1.22545329      0.00021875
H       2.50581870     -1.47395531      0.00010920
