16
b3lypvtz=-181101.82476846
C       1.19118683     -0.55495502      0.56052624
C       0.12302275     -1.51342277      0.16689002
C      -1.42779358     -1.39086191     -0.15437716
C      -1.64181708     -2.66707492      0.69669129
C      -0.16158267     -2.93515968      0.46345889
N       0.21756995     -2.50795339     -0.93904641
C      -1.05275948     -1.96831047     -1.52236891
H       1.00446332     -0.13809919      1.55273152
H       1.26074013      0.27495726     -0.14670624
H       2.15612615     -1.06389697      0.57804979
H      -2.06900090     -0.52223219     -0.03443901
H      -1.83001887     -2.43230071      1.74423843
H      -2.37836917     -3.39164996      0.34104965
H       0.47576386     -3.68217435      0.91284100
H      -0.79292756     -1.21269739     -2.26288059
H      -1.71830369     -2.71166834     -1.96985849
