17
b3lypvtz=-171049.99763827
C      -2.45614268     -0.03186856     -0.52668227
C      -1.54729921     -0.43651957      0.35484895
C      -0.11197896     -0.11099219      0.32749109
C       1.02289574     -1.15070383      0.32799650
C       1.83422133     -0.23381867     -0.64203091
C       0.70190438      0.79322688     -0.60068624
C       0.43930739      1.20832453      0.81588921
H      -3.50019587     -0.29553311     -0.42270473
H      -2.18722259      0.58049586     -1.37901599
H      -1.86398651     -1.06371371      1.18596065
H       1.47292417     -1.36418806      1.29959756
H       0.73301687     -2.08978166     -0.14045691
H       2.80577844      0.11728156     -0.28841661
H       1.96328448     -0.68998262     -1.62184464
H       0.36054444      1.38877437     -1.43612940
H      -0.30098188      1.98616557      0.94540952
H       1.24923347      1.22773723      1.53919321
