18
b3lypvtz=-181895.3426455
C       3.03541005      0.18873781      0.07213754
C       1.73870126      0.24521773     -0.24159241
N       0.71577771     -0.49846168      0.32647717
C      -0.46506565     -0.78142544     -0.43604940
C      -1.73167349     -1.08695723      0.31505971
C      -1.61173977      0.20859320     -0.44387093
C      -1.54031787      1.52524675      0.29041985
H       3.73755913      0.86475947     -0.39030248
H       3.42123717     -0.51004238      0.80417213
H       1.38861455      0.95378140     -0.98406867
H       1.02586981     -1.25895643      0.91368741
H      -0.31370115     -1.33193874     -1.36218527
H      -1.67896249     -1.02366293      1.39419803
H      -2.37762207     -1.86737919     -0.06184896
H      -2.15275410      0.24668920     -1.38202719
H      -2.53874599      1.85731616      0.58270604
H      -1.10169390      2.30591377     -0.33515710
H      -0.93378020      1.44069154      1.19096852
