14
b3lypvtz=-180363.3162607
C      -3.50911501     -0.54787274      0.00277358
C      -2.45636759      0.27007564     -0.00053612
N      -1.15533482     -0.22035284      0.00058758
C      -0.20082916      0.63453371     -0.00275076
C       1.16645069      0.25788163     -0.00171296
C       2.34441420      0.00274062     -0.00103783
C       3.75689353     -0.33492000      0.00078102
H      -4.51709931     -0.15886554      0.00183276
H      -3.36964537     -1.62011047      0.00647027
H      -2.59540253      1.35375386     -0.00422752
H      -0.39991730      1.71378690     -0.00640600
H       3.99745697     -1.00129969     -0.83020167
H       4.37846832      0.55762551     -0.08853301
H       4.03098237     -0.84693759      0.92574768
