14
b3lypvtz=-227000.65799749
C       1.38367889      1.69240634      0.16882702
C       0.63956924      0.60531630      0.02952823
C       0.99880364     -0.76768757      0.53295756
N       0.83486663     -1.77652473     -0.51397528
O      -0.53092272      0.71707758     -0.73174371
C      -1.69263754      0.19550982     -0.28558089
O      -1.91325774     -0.23609622      0.80793966
H       2.33865135      1.63628609      0.66945662
H       1.05555297      2.64929846     -0.20977495
H       0.32524020     -1.02776065      1.34903382
H       2.01079608     -0.70010734      0.94969845
H       1.57735869     -1.71597609     -1.19988714
H       0.85743018     -2.70655746     -0.11754010
H      -2.42706087      0.25937749     -1.09737727
