11
b3lypvtz=-264605.75344857
C      -0.39296938     -0.60282143     -0.19143241
C      -1.57667502     -0.35235360      0.36052047
O      -2.10805425      0.83929511      0.64288236
F      -2.40796980     -1.32951643      0.68957991
O       0.37255735      0.48893830     -0.59708065
C       1.65425413      0.58353556     -0.10097827
N       2.22790117     -0.11947383      0.76409986
H      -0.04697397     -1.59709148     -0.42346307
H      -1.49744205      1.52158260      0.33104144
H       2.15507784      1.40921129     -0.59626248
H       1.62029399     -0.84130610      1.15168516
