20
b3lypvtz=-182657.31993228
C       2.88988203     -0.48942977      0.08077370
C       1.77483100      0.50429217      0.41051236
C       0.53383466      0.31503270     -0.44434729
C      -0.74085241      1.12999286     -0.12104805
N      -1.54836041     -0.07228805     -0.39999586
C      -2.71684018     -0.32800587      0.40832730
C      -0.36174179     -0.92999943     -0.22351263
H       3.76578993     -0.32734912      0.71079596
H       3.20700002     -0.39482428     -0.96012557
H       2.56029415     -1.51951267      0.23256999
H       2.14663860      1.52556710      0.27821940
H       1.50318271      0.41334030      1.46665057
H       0.78681324      0.41299903     -1.50162304
H      -0.76901241      1.42817618      0.93896949
H      -0.97561887      1.99963970     -0.73845266
H      -2.49879663     -0.34162565      1.49112859
H      -3.15162671     -1.29243343      0.13836882
H      -3.47108870      0.43963367      0.22441408
H      -0.26278824     -1.31774607      0.80314216
H      -0.28620600     -1.76394438     -0.92414632
