14
b3lypvtz=-180394.05209516
C      -0.36038238     -1.08520696     -0.05432419
C      -1.79997027     -0.66999866     -0.10725587
C      -1.88323036      0.67331227     -0.06452567
C      -0.54019488      1.22939825      0.01740188
C       0.37097281      0.22570957      0.02524688
C       1.80850449      0.37616007      0.09732247
N       2.59775700     -0.62788205      0.09987898
H      -0.05804422     -1.66449918     -0.93252074
H      -0.13964158     -1.72488282      0.80612569
H      -2.62543523     -1.36300618     -0.16990767
H      -2.79031458      1.25935007     -0.08649175
H      -0.31146026      2.28539636      0.06458461
H       2.16251833      1.41274024      0.14909090
H       3.56892111     -0.32659096      0.15537445
