18
b3lypvtz=-181898.99513342
C       3.10393076      0.21366698     -0.32756089
C       2.26155298     -0.72321312      0.09098661
C       0.78458853     -0.57774231      0.32455206
C       0.19545222      0.80590666      0.06558586
C      -1.30691495      0.88758433      0.34714471
N      -2.06901246      0.06841700     -0.58204906
C      -2.91158876     -0.74536903     -0.11821681
H       2.78610549      1.22374256     -0.55120059
H       4.15512221     -0.00261725     -0.46539812
H       2.65549374     -1.71589721      0.29276737
H       0.26470678     -1.31495045     -0.29680491
H       0.56997894     -0.87791980      1.35843926
H       0.69934252      1.54610409      0.69255590
H       0.36772113      1.09501355     -0.97338847
H      -1.51709636      0.62222682      1.39480744
H      -1.63061431      1.92146650      0.19840342
H      -3.49612425     -1.35903065     -0.80069319
H      -3.09964821     -0.87523767      0.95574241
