16
b3lypvtz=-202065.56094595
C      -1.47285909      1.31655657     -0.42073726
C      -1.22921412      0.04269015     -0.09522233
C      -2.32841640     -0.91486211      0.27590010
N       0.03358061     -0.55934816     -0.08466401
C       1.28663538      0.04448845      0.07511083
N       1.55568615      1.22714044      0.45831321
N       2.31177520     -0.86498728     -0.18703643
H      -0.70159146      2.00226482     -0.73359780
H      -2.48779554      1.68276362     -0.40126638
H      -2.32558262     -1.78606796     -0.38595353
H      -2.20000937     -1.28082700      1.29803636
H      -3.30175623     -0.43716632      0.19828572
H       0.03968072     -1.55520521      0.06379965
H       0.72101314      1.72030054      0.75649576
H       3.21537501     -0.41966899     -0.13011516
H       2.19733963     -1.39945757     -1.03602674
