14
b3lypvtz=-201297.64428828
N       2.09374192      0.56413978      0.02254080
C       0.73946812      0.21778664      0.07559876
C       0.39443085     -1.13048956     -0.51513020
N      -1.02583461     -1.34059892     -0.78543063
C      -1.86673165     -0.51154723     -0.31444052
N      -1.58015290      0.59615387      0.44728812
C      -0.23189505      1.00917885      0.53856867
H       2.71620613     -0.19994570      0.25045797
H       2.33757562      1.38603991      0.55696649
H       0.75074478     -1.93137612      0.15208886
H       0.95221093     -1.26471361     -1.44945882
H      -2.92622211     -0.66562820     -0.50502402
H      -2.29606926      1.29616390      0.53528085
H      -0.05757277      1.97473640      0.99089367
