18
b3lypvtz=-181872.17911846
N      -2.48870263     -0.31648602      0.00000134
C      -1.45483178      0.72170589      0.00000072
C      -0.02450609      0.23638115      0.00000016
C       1.26885951      1.11033086     -0.00000149
C       1.76070654     -0.36100280     -0.00000064
C       0.67964214     -0.65354780     -1.07374015
C       0.67964368     -0.65354605      1.07374091
H      -2.38639376     -0.91391564      0.81258480
H      -2.38639384     -0.91391654     -0.81258146
H      -1.61590815      1.35858232      0.87496430
H      -1.61590890      1.35858207     -0.87496291
H       1.46278079      1.69221234     -0.90206679
H       1.46278211      1.69221385      0.90206255
H       2.79203477     -0.70826018     -0.00000109
H       0.83029096     -0.20330745     -2.05611758
H       0.34018255     -1.68727591     -1.15378468
H       0.83029391     -0.20330408      2.05611738
H       0.34018420     -1.68727402      1.15378763
