14
b3lypvtz=-201293.55497219
C      -0.13327071      1.95678580      0.41277528
C      -0.26614013      0.66435346      0.09952224
C      -1.62303219      0.11598456     -0.13904294
N      -1.96783660     -1.06458179     -0.45035049
C       0.94814826     -0.20702917     -0.02942135
N       1.97122750      0.05803033     -0.74381469
N       0.88508662     -1.40677555      0.65493101
H      -0.99924373      2.60249147      0.48643441
H       0.83421554      2.40004401      0.60512737
H      -2.41673220      0.86061248     -0.03851404
H      -1.15654766     -1.68250334     -0.51330862
H       1.83491300      0.91860390     -1.26493441
H       1.75871202     -1.91112347      0.67918087
H       0.35599229     -1.43014068      1.51131634
