13
b3lypvtz=-190383.08804832
C      -1.61065705      0.32593350     -0.23959340
N      -0.61016182      0.93816837     -1.15535034
C       0.46169213      0.95818964     -0.47495529
C       1.53633701     -0.07610267     -0.71309248
C       0.78661954     -0.68147707      0.53064505
C      -0.68554531     -0.30652523      0.80397471
N       0.37717517      0.67468146      0.99959565
H      -2.29331451      1.03468311      0.24283554
H      -2.20427142     -0.37382534     -0.82810576
H       1.50497746     -0.56325579     -1.68264077
H       2.55226032      0.16875047     -0.40413942
H       1.29245054     -1.35063899      1.21996571
H      -1.10766206     -0.74858146      1.70076079
