18
b3lypvtz=-205214.80384953
C      -2.09897923     -0.45363267     -0.34511584
C      -1.05166652     -0.02316553      0.69265259
C       0.09596240      0.75087263      0.09341248
N      -0.24770278      2.03525613     -0.32417028
C       1.32139214      0.23162473     -0.10411827
C       1.71908796     -1.17677251      0.21934609
O       1.92534680     -1.42638179      1.62452926
H      -2.92836462     -0.97189327      0.13853335
H      -2.50027544      0.40484109     -0.88356672
H      -1.66028696     -1.13046775     -1.07949306
H      -0.66224400     -0.88954210      1.22229298
H      -1.53472474      0.60318672      1.45093662
H      -0.91604428      2.51693511      0.25749901
H       0.52422528      2.62786144     -0.58854455
H       2.08722047      0.86952594     -0.53604944
H       0.95625883     -1.89725490     -0.07851341
H       2.62905815     -1.43038576     -0.33386613
H       2.34143653     -0.64070751      1.99313535
