14
b3lypvtz=-203676.31685308
N      -2.39438561      0.36876935      0.05166582
C      -1.37510991     -0.58567513     -0.37842376
C      -0.10593145     -0.43679194      0.45699149
C       1.06055858     -1.36548031      0.13241414
C       1.93019464     -0.40994352     -0.23351977
C       0.93094611      0.66766024      0.03411644
O       0.90900863      1.86106844     -0.03957474
H      -3.17662130      0.37377191     -0.59063592
H      -2.76027456      0.11886974      0.96287159
H      -1.69869420     -1.63774244     -0.33127380
H      -1.13989574     -0.38082518     -1.42574630
H      -0.36006130     -0.39544827      1.52107603
H       1.14487372     -2.44218873      0.18663891
H       2.95843439     -0.41842516     -0.56699813
