15
b3lypvtz=-193593.26353998
C      -2.61083282     -0.88330342     -0.42627169
C      -1.50256539     -0.84377654      0.29730698
C      -0.67214891      0.40364965      0.53147203
O      -1.14564825      1.53827314     -0.18815762
C       0.74822848      0.13620744      0.26711061
C       1.90474390     -0.08533380      0.02636225
C       3.30915368     -0.34344299     -0.25688594
H      -3.00439652      0.00538242     -0.90108428
H      -3.16274934     -1.80467674     -0.55423330
H      -1.12332089     -1.73815903      0.77990759
H      -0.77743965      0.68568229      1.58504898
H      -0.90211154      1.42075184     -1.11325951
H       3.79617642      0.54771940     -0.65764874
H       3.84291953     -0.63389013      0.65018228
H       3.42573429     -1.14703152     -0.98655663
