13
b3lypvtz=-213711.34383528
C      -2.19043699      0.30308500      0.35695125
C      -1.14386527     -0.06937194     -0.61523215
O      -1.85033899     -1.06332657      0.12711782
C       0.29003415      0.11546209     -0.32313065
C       0.98394479     -0.64607219      0.52324907
N       2.37990977     -0.52677036      0.73018291
N       2.82097067      0.63600847      0.71914394
H      -1.88841988      0.70018983      1.31991539
H      -3.16864266      0.60674003     -0.00221065
H      -1.41794420     -0.02374915     -1.66703100
H       0.80290914      0.90415959     -0.86219804
H       0.53889023     -1.49747726      1.01952296
H       3.84298923      0.56112247      0.81752079
