19
b3lypvtz=-195141.87860836
C       0.77065589      1.60265765      0.18143222
C       0.48178145      0.32892780      0.43193267
C       1.45751866     -0.78531989      0.12921250
O       2.61265398     -0.40616291     -0.59844186
C      -0.82189117     -0.10990692      1.05561093
C      -1.83491798     -0.74282663      0.07861752
C      -2.39509156      0.23385718     -0.95354386
H       0.07062522      2.39419323      0.41570362
H       1.72213493      1.89246444     -0.24323460
H       1.82583457     -1.19852930      1.07297081
H       0.93112208     -1.60501930     -0.37741619
H       2.33026753     -0.05609954     -1.44959305
H      -0.60856104     -0.83636645      1.84724993
H      -1.29157099      0.74812662      1.54196187
H      -2.65744138     -1.15592718      0.66826683
H      -1.37573332     -1.59378174     -0.43130694
H      -3.11358942     -0.25969067     -1.60989231
H      -2.90824712      1.06650375     -0.46654218
H      -1.60580733      0.65504586     -1.57729291
