20
b3lypvtz=-182654.59974774
C      -3.10341154      0.73066294      0.12018796
C      -1.94399607     -0.15987975     -0.32534800
C      -0.62169543      0.18805915      0.35990096
C       0.53302767     -0.70513527     -0.08142729
N       1.76316018     -0.37899079      0.63315330
C       3.00800155     -0.79621263      0.00418971
C       2.61529532      0.63717819      0.02794428
H      -4.03195466      0.45887229     -0.38451246
H      -3.27331051      0.64709129      1.19578673
H      -2.90142481      1.78123632     -0.10011753
H      -1.82310226     -0.08288663     -1.41053151
H      -2.19156415     -1.20655384     -0.12209319
H      -0.36716653      1.23276661      0.15425845
H      -0.73033990      0.10578421      1.44469695
H       0.66764650     -0.62793045     -1.17375561
H       0.29456814     -1.75020784      0.13588293
H       3.77508448     -1.16780827      0.67212035
H       2.94676768     -1.30887222     -0.95131218
H       3.09229964      1.32699076      0.71270652
H       2.29211471      1.07583594     -0.91173038
