16
b3lypvtz=-227757.22679266
C      -2.11551724     -0.74132654     -0.46307141
O      -1.40461279      0.23307766      0.28860870
C      -0.14446796      0.57682322     -0.24499547
C       0.25314164      1.92858580      0.34274263
C       0.91151313     -0.48755174      0.07242352
N       0.85626762     -1.34819103      0.98875201
O       2.02402150     -0.44226050     -0.71244414
H      -2.31765807     -0.38053888     -1.47788512
H      -3.06094778     -0.90516574      0.04934576
H      -1.57117757     -1.68804787     -0.52249052
H      -0.22402590      0.66205909     -1.34076928
H      -0.46699953      2.69039571      0.04742234
H       0.26863653      1.86320545      1.43023900
H       1.24479456      2.22965671      0.00361751
H      -0.01974695     -1.23985771      1.49574054
H       1.91070882      0.20986037     -1.41180207
