12
b3lypvtz=-223812.2173695
N      -3.05794554     -0.29912910     -0.00000623
C      -1.79077923     -0.45654707      0.00000346
C      -0.80150544      0.60674779      0.00000222
C       0.53616807      0.41538166      0.00000768
O       1.40952142      1.42739751     -0.00000236
N       1.05106708     -0.90508038      0.00001471
N       2.29857767     -0.91396221      0.00001876
H      -3.30182805      0.69442161     -0.00001388
H      -1.41069923     -1.47505730      0.00000996
H      -1.15754434      1.63057691     -0.00000935
H       2.29508138      1.00996095      0.00000323
H       2.60849821     -1.89050835      0.00002982
