17
b3lypvtz=-171084.56733599
C       2.26497825     -0.06925100     -0.43188590
C       1.05085107      0.01785875      0.10229248
C       0.33184773      1.33192993      0.28843333
C      -1.13726904      1.23395571     -0.03695501
C      -1.76417103      0.08522064     -0.27276339
C      -1.08483809     -1.25532807     -0.21198799
C       0.25585475     -1.18240602      0.54061363
H       2.80639976      0.80913320     -0.76172726
H       2.76239042     -1.02388143     -0.55255333
H       0.44315000      1.66868010      1.32874421
H       0.79941890      2.10771638     -0.32321262
H      -1.68911096      2.16664890     -0.08066833
H      -2.81946164      0.09575423     -0.52321952
H      -0.92007194     -1.63013852     -1.22857030
H      -1.74266618     -1.98323083      0.27109662
H       0.82923623     -2.09918318      0.39929656
H       0.04110277     -1.09376378      1.61163482
