14
b3lypvtz=-180340.66265413
C       3.30277163      0.05935915      0.15101153
C       2.21374012     -0.42272426     -0.02203554
C       0.93973459     -1.01038496     -0.23055570
C      -0.20124498     -0.32382735     -0.21060490
C      -0.58233615      1.11200352      0.05220420
N      -2.00817321      0.67943595      0.15667913
C      -1.66264236     -0.67793844     -0.35845823
H       4.26201338      0.48585707      0.30553011
H       0.91569008     -2.07981052     -0.41565799
H      -0.36106797      1.77649693     -0.79126470
H      -0.18322915      1.56556882      0.96201471
H      -2.63976230      1.19645748     -0.44069484
H      -1.95722450     -0.86229605     -1.39852407
H      -2.03826919     -1.49819733      0.25797134
