15
b3lypvtz=-212117.48700928
C      -1.20803360      0.96299578      0.63839013
C      -1.18529300     -0.43707950      0.08193723
N      -2.36629871     -1.11946087      0.20362617
N      -0.21607648     -1.02524384     -0.52304807
C       1.04050349     -0.47643882     -0.66954063
N       1.64315908      0.23028392      0.20780447
N       2.90917023      0.70827454     -0.12257435
H      -0.91742823      0.95284360      1.69008997
H      -0.49065918      1.59388352      0.12228412
H      -2.20868464      1.38962828      0.55533075
H      -3.05324316     -0.80233723      0.86311789
H      -2.34000017     -2.10556875      0.00335851
H       1.54077049     -0.76331105     -1.60111099
H       3.39248082      0.12517233     -0.80423485
H       3.45963306      0.76635808      0.72246966
