17
b3lypvtz=-191956.19485539
C      -0.76695682      1.04697420     -1.04748923
C      -0.72381306      0.07663675      0.10914094
C      -1.35877829      0.42918624      1.39886592
N      -2.02698782     -0.50754117      0.47361453
C       0.48275861     -0.84678025      0.14287354
N       1.72217529     -0.10960524      0.34053806
C       2.65148228     -0.27186711     -0.49495469
H       0.07784350      1.73633004     -1.00891514
H      -0.73045878      0.51367494     -2.00103897
H      -1.69051197      1.62308268     -1.02163047
H      -1.85287483      1.38637906      1.51100182
H      -0.91741656      0.03917651      2.30833329
H      -1.91216115     -1.46143156      0.80262952
H       0.37421875     -1.52879367      0.99161280
H       0.50916592     -1.45391716     -0.77595464
H       3.58789705      0.26625919     -0.36434995
H       2.57451787     -0.93766343     -1.36427735
