13
b3lypvtz=-213752.51539075
C       1.11353048     -0.10250113     -0.46377181
C       2.34726101      0.18093918      0.17710684
N       2.20707488      0.42146456      1.45200004
O       0.83038273      0.30171814      1.69249948
C       0.20689030     -0.01374797      0.54280666
C      -1.27383434     -0.19749754      0.60791450
N      -1.85493680     -0.15291294     -0.73204040
H       0.92337557     -0.34198794     -1.49309562
H       3.33700873      0.21717485     -0.25137238
H      -1.68002146      0.53941645      1.31323937
H      -1.48443307     -1.18109828      1.03748090
H      -1.85557367      0.79485151     -1.08966694
H      -2.81672435     -0.46581890     -0.70974233
