13
b3lypvtz=-213776.54865219
C       2.37204112     -0.50922373      0.33736205
N       1.26827641     -0.59718536     -0.27473045
C       0.29065640      0.40305743     -0.12208859
C       0.52322570      1.71095426     -0.24008033
C      -1.13027975     -0.08712018      0.05305891
N      -1.28305430     -1.42419759     -0.12381681
O      -2.04493044      0.66522310      0.33439704
H       2.60124905      0.30075946      1.03586707
H       3.13164533     -1.26860870      0.17337555
H      -0.30446454      2.40116192     -0.17561417
H       1.51289658      2.09501450     -0.44338418
H      -2.21194249     -1.80625672     -0.09210807
H      -0.51112706     -1.97987039     -0.44967001
