9
b3lypvtz=-233097.87651011
C      -1.03226990     -0.71145342     -0.27781858
N      -2.10508783     -0.12984685     -0.61191879
C       0.24220721     -0.06393705      0.07336551
N       1.37908523     -0.77485335      0.42732171
N       2.28996279      0.03765073      0.66699122
O       1.75572864      1.33804950      0.47008942
N       0.47349820      1.21642900      0.10017460
H      -1.00563213     -1.79877673     -0.23302966
H      -1.99749219      0.88673818     -0.61517544
