12
b3lypvtz=-221387.57356731
C       2.98102754     -0.63014251      0.00000694
N       1.71970816     -0.48722324      0.00002381
N       1.32047354      0.85960880      0.00000821
C       0.04347575      0.98204282      0.00002320
N      -0.86895179     -0.03504911      0.00006253
N      -2.18408260      0.24919528      0.00007146
N      -2.89798433     -0.77078882      0.00010189
H       3.38089106     -1.63730798      0.00003109
H       3.65915231      0.22231927     -0.00001509
H      -0.38990797      1.97405698      0.00000589
H      -0.56138365     -1.00345468      0.00007768
H      -3.86290702     -0.43370982      0.00010040
