14
b3lypvtz=-201299.67148273
C       2.42591138     -0.00001054     -0.61838205
C       1.53572592      0.00001684      0.62112141
N       0.11130124      0.00000679      0.30333436
C      -0.70391263      1.07336685      0.08630404
N      -1.91165761      0.68990565     -0.22808583
N      -1.91166191     -0.68992299     -0.22803021
C      -0.70390513     -1.07336561      0.08633699
H       3.47625919      0.00000010     -0.32393772
H       2.24304526     -0.88289995     -1.23113201
H       2.24303945      0.88284813     -1.23117461
H       1.73614096      0.87606094      1.23821053
H       1.73614437     -0.87599655      1.23825313
H      -0.37189424      2.09434743      0.17878459
H      -0.37187226     -2.09434110      0.17882136
