12
b3lypvtz=-231234.14605089
C       2.45694016     -0.38456637     -0.00002144
C       1.38100170      0.40415855      0.00000105
C      -0.02003433     -0.01494387      0.00000678
C      -0.42188643     -1.44630022      0.00001403
O      -1.56524737     -1.84205764     -0.00000283
C      -1.02663995      0.86986738      0.00001108
F      -0.81961061      2.18802728     -0.00000184
H       3.44799661      0.04718518     -0.00002415
H       2.40719870     -1.46432402     -0.00003849
H       1.53306421      1.47692283      0.00001446
H       0.41124423     -2.16994876      0.00002705
H      -2.07233893      0.59849865      0.00000631
