13
b3lypvtz=-213781.66874044
C      -2.10440648     -0.55965611     -0.01234422
C      -0.62133707     -0.41859345     -0.00676013
C       0.14947676      0.70057685     -0.00443635
N      -0.09329829      2.06229113      0.08214567
O       1.46336415      0.32551628      0.00466918
C       1.41889344     -1.04069271      0.00521891
N       0.23184597     -1.52563894      0.00756863
H      -2.48130380     -0.91337034      0.95063542
H      -2.41859188     -1.27989295     -0.76936433
H      -2.59527443      0.39056184     -0.23068336
H       0.47548712      2.61487467     -0.54560669
H      -1.06986945      2.29034041     -0.02609372
H       2.36434296     -1.55396669     -0.01007900
