13
b3lypvtz=-190426.38259384
C       2.58529765     -0.67973312     -0.34346634
C       1.50623228     -0.39098086      0.09497976
C       0.20653626     -0.02934392      0.61156835
C      -1.00161095     -0.99087208      0.35943188
N      -1.73691504      0.17319556     -0.15171180
C      -0.63462381      1.00381515     -0.19646304
N      -0.48138665      2.12574552     -0.74525300
H       3.53904209     -0.93718015     -0.73145573
H       0.27447316      0.26330504      1.66052191
H      -0.77999530     -1.75304110     -0.38863750
H      -1.43827743     -1.44902701      1.24630033
H      -2.49610076      0.17786641     -0.81570650
H       0.45732851      2.48625053     -0.60010832
