14
b3lypvtz=-180369.54194534
C      -2.26954572     -0.32968461     -0.00968014
C      -0.97361458     -0.01483568     -0.05203733
C      -0.37641304      1.31377100      0.14371574
C       0.94419922      1.28090190     -0.08832357
C       1.39387185     -0.10856174     -0.40159043
N       1.21496804     -1.11266716      0.66661184
C       0.16002976     -0.94872610     -0.35275541
H      -3.02315398      0.41502282      0.21140876
H      -2.61324419     -1.33859582     -0.19575960
H      -0.94354037      2.17796357      0.46023749
H       1.61860479      2.12300997     -0.02587881
H       2.22011429     -0.29135270     -1.07520249
H       0.94626907     -0.65009896      1.53065338
H      -0.00363214     -1.81171649     -0.98345444
