12
b3lypvtz=-228830.79117277
N      -3.27098472     -0.68200875      0.00004546
C      -2.35151168      0.18747482     -0.00012404
N      -0.98116310     -0.10261446     -0.00010717
C      -0.17728921      0.89370283     -0.00003010
C       1.26956390      0.75941577      0.00000350
C       1.87813056     -0.42477821     -0.00000335
F       3.20795774     -0.52376466      0.00004709
H      -2.85484513     -1.61603734     -0.00005524
H      -2.63072803      1.24762109      0.00020573
H      -0.55772588      1.92237610     -0.00010610
H       1.86896698      1.66010061      0.00003021
H       1.37730456     -1.38270779      0.00001201
