10
b3lypvtz=-223071.92466405
O       1.06103376     -0.16551057      0.09874193
C       2.26855625     -0.05808623      0.04320048
C       3.06813204      1.14265451     -0.03372530
C       4.41348062      1.02651648     -0.08763295
N       5.09573851     -0.17415023     -0.07450129
N       4.43429056     -1.25677387     -0.00743075
N       3.09930430     -1.19589698      0.04807257
H       2.64896371     -2.10042757      0.09983395
H       2.56517066      2.09874963     -0.04587011
H       5.05902958      1.89252484     -0.14618853
