12
b3lypvtz=-223812.09267081
C      -1.70216302     -0.23518156     -0.08925819
N      -0.31754027     -0.53618985      0.23897519
C       0.67771649      0.39698197      0.27979658
N       1.94803024      0.16405342      0.26101476
O       2.15927882     -1.22458477      0.12839554
C       0.31727032      1.78387054      0.40341488
N      -0.00749696      2.88454447      0.49352198
H      -2.01322614      0.67990023      0.41067735
H      -1.86713651     -0.11484679     -1.16418867
H      -2.33159331     -1.04645303      0.27214388
H       0.01796187     -1.46331224      0.03167126
H       3.11889846     -1.28878241      0.11310483
