13
b3lypvtz=-192897.10987603
C      -1.64314310      0.24741949     -0.00273265
C      -0.73316765      1.29738836     -0.02084228
C       0.63441457      1.04640486     -0.01780451
C       1.09727208     -0.26746004      0.00352230
C       0.19112062     -1.32582814      0.02178696
C      -1.17125506     -1.06225000      0.01854425
O       2.42881595     -0.57745250      0.00751769
H      -2.70616507      0.44553039     -0.00514354
H      -1.08460842      2.32091598     -0.03749773
H       1.34124502      1.86867904     -0.03197363
H       0.56930239     -2.33873778      0.03824661
H      -1.87020538     -1.88855551      0.03278545
H       2.94637406      0.23394585     -0.00640893
