17
b3lypvtz=-191974.66128577
C       3.11889093      0.43374228     -0.30510218
C       2.01265372      0.04124782      0.33103013
N       0.73664453     -0.06360199     -0.20487080
C      -0.16358439     -1.10931633      0.31179141
C      -1.55550019     -0.98960074     -0.24215739
C      -2.28219992      0.13699235     -0.21988838
N      -1.89094145      1.34591847      0.32610963
H       3.12402298      0.66236958     -1.36376917
H       4.04537150      0.55382567      0.23501143
H       2.05029966     -0.18779814      1.39150790
H       0.70982780     -0.00026128     -1.21402613
H      -0.16888572     -1.00078300      1.40305932
H       0.22921644     -2.11138884      0.10176826
H      -2.01260413     -1.87962102     -0.64938614
H      -3.29174931      0.12754821     -0.61413634
H      -0.89049490      1.47746707      0.38558118
H      -2.38356854      2.15840188     -0.00454073
