18
b3lypvtz=-205203.76182259
C       1.77118047      1.43573752      0.01339840
C       1.19475870      0.05502073     -0.29088082
N       2.06791622     -0.97811052      0.27849332
C      -0.17318165     -0.10863799      0.32499246
O      -0.94434872     -1.23002699     -0.14164460
C      -1.41473465      0.09865059     -0.42291720
C      -2.70283616      0.51039535      0.23289677
H       2.76441356      1.54251312     -0.42720904
H       1.86621554      1.58121437      1.09048454
H       1.13885918      2.22526901     -0.39502081
H       1.07508920     -0.04630332     -1.37930540
H       1.69767767     -1.89691510      0.06218718
H       2.99285953     -0.92630695     -0.13244431
H      -0.19738603      0.01612412      1.40583308
H      -1.32021113      0.37095165     -1.47239895
H      -2.83195188      1.59363286      0.17710300
H      -2.71660842      0.21087507      1.28066188
H      -3.55425944      0.04506745     -0.26743251
