15
b3lypvtz=-212109.2334211
C      -2.66427221      0.39750909     -0.45737742
N      -1.68162266      0.11644061      0.30255610
N      -0.88286303     -0.93650320     -0.00427649
C       0.44040672     -0.92845424      0.60638913
C       1.40109589      0.10245017      0.02136548
N       2.43101803     -0.16223704     -0.68757127
N       1.08014821      1.39905623      0.33293158
H      -2.88336421     -0.14761909     -1.37809323
H      -3.31819162      1.20651085     -0.16313646
H      -0.89496193     -1.21977784     -0.98095451
H       0.30304099     -0.74869118      1.67334885
H       0.86770046     -1.92240474      0.48069694
H       2.55759589     -1.16607645     -0.77849533
H       0.12921073      1.59593219      0.59981140
H       1.55818975      2.10902864     -0.19810877
