15
b3lypvtz=-193618.30579901
C      -1.95110200      0.80531113     -0.71023250
C      -1.11640607     -0.00432675     -0.05872454
C      -1.57029084     -1.30281905      0.55841074
C       0.31889089      0.34513674      0.10379079
C       0.74175947      1.48473066      0.65819235
C       1.33797741     -0.62635073     -0.40421694
O       2.53204065     -0.50394224     -0.27300645
H      -3.00102295      0.56368314     -0.81728302
H      -1.60719839      1.72484133     -1.16431637
H      -1.00034867     -2.15341893      0.17617163
H      -2.62493874     -1.48724997      0.35923077
H      -1.41871057     -1.28757818      1.64086687
H       1.80192096      1.68941995      0.73057707
H       0.04789346      2.21668338      1.04802683
H       0.92562038     -1.49275348     -0.95706122
