20
b3lypvtz=-182665.12967046
C       2.84924980     -0.16744499      0.01996590
C       1.54668069      0.48216799     -0.45326227
C       0.35659228     -0.42431645     -0.25016807
N      -0.20170774     -0.52086966      1.11460657
C      -1.04075411      0.01074739      0.02152899
C      -1.41338780      1.47168354      0.15067365
C      -2.16444656     -0.86440384     -0.49435311
H       3.70202039      0.49505780     -0.13610019
H       3.04788319     -1.09650333     -0.51968245
H       2.79356715     -0.40280518      1.08371717
H       1.39403494      1.41845027      0.08371651
H       1.62254766      0.73442476     -1.51584987
H       0.43718577     -1.36165284     -0.79752331
H      -0.46079445     -1.47829343      1.32991650
H      -2.30488312      1.57669665      0.77392372
H      -0.61779394      2.04880757      0.61527793
H      -1.63632268      1.90654545     -0.82675373
H      -1.84561234     -1.90332208     -0.59753968
H      -3.01885887     -0.83720042      0.18736122
H      -2.51327026     -0.52242919     -1.47162147
