15
b3lypvtz=-216921.12782378
O       2.74986841     -0.33394500     -0.08174961
C       1.58701115     -0.45245816     -0.38624828
C       0.48111147      0.23424916      0.36860385
O       1.00464205      0.98680019      1.42018209
C      -0.67937102     -0.75567556      0.71297120
C      -1.43815078     -0.27701948     -0.54824614
C      -0.50981882      0.96039811     -0.59875776
H       1.28240849     -1.07963516     -1.24485054
H       1.96792866      0.87304273      1.39427727
H      -1.15028241     -0.41524327      1.63360762
H      -0.43808712     -1.81453303      0.80669594
H      -2.50427127     -0.08931374     -0.44052780
H      -1.29186257     -0.94202575     -1.39901716
H      -0.92981324      1.81487105     -0.07070710
H      -0.13141300      1.29048794     -1.56623357
