12
b3lypvtz=-202928.23774026
C       3.48327146     -0.24396167     -0.00003781
C       2.31437722      0.04073584     -0.00002667
C       0.95206372      0.41893019     -0.00001669
C      -0.07660136     -0.43612687      0.00000132
C      -1.47456009      0.07756642      0.00000801
N      -2.43375023     -0.89291915      0.00002417
O      -1.74879241      1.26551419      0.00000641
H       4.51296618     -0.50193699     -0.00007853
H       0.72206410      1.48015805     -0.00002307
H       0.09461791     -1.50569417      0.00001163
H      -2.21132143     -1.87122196     -0.00002766
H      -3.39864607     -0.61087888     -0.00000610
