14
b3lypvtz=-203678.63246972
C       1.90660929     -0.21164074     -0.28930301
N       0.69080568      0.32412812      0.28637381
C      -0.43915969     -0.41420293      0.85641458
C      -1.42651971     -0.79301848     -0.19982204
C      -1.38234774      0.64120795      0.32323327
C      -0.14094557      1.30185925     -0.26265882
O       0.09794851      2.24961664     -0.96043244
H       2.60112033     -0.51992064      0.49293195
H       2.37419982      0.57717113     -0.87659398
H       1.71081141     -1.06817131     -0.94339867
H      -0.39615503     -0.82696345      1.85292296
H      -1.08792919     -1.00974749     -1.20544302
H      -2.28816847     -1.36692984      0.11951024
H      -2.22026966      1.11641178      0.80656517
