13
b3lypvtz=-216043.80871714
C      -1.66326368      1.10286347      0.29938581
C      -0.85405407     -0.23099935      0.13969215
C       0.28018927      0.71164214      0.08574941
O      -0.59103785      1.77931211     -0.47530928
C       1.31369409     -0.44316728     -0.06171092
C       0.24941882     -1.31400473      0.53530846
O       0.80927841     -1.57683271     -0.75292193
H      -1.72380572      1.51458673      1.30829300
H      -2.61784091      1.15601826     -0.21822495
H      -1.09839928     -0.54427191     -0.87382819
H       0.52958892      1.08042171      1.09104109
H       2.38018441     -0.40620415      0.11379590
H       0.32444759     -2.07956428      1.29432946
