10
b3lypvtz=-225465.74132915
C       2.88328229      0.77634013      0.09722019
C       1.78289587      0.29418997      0.07332943
C       0.51976685     -0.34999955      0.03572347
N      -0.57500914      0.29903916      0.15046060
C      -1.75782017     -0.51455988      0.09109458
O      -1.81019656     -1.70441407     -0.04543011
O      -2.85136994      0.25026220      0.21285388
H       3.84905303      1.21850968      0.12052958
H       0.51302774     -1.43523980     -0.09617637
H      -2.55362996      1.16587215      0.31040024
