18
b3lypvtz=-181875.88953177928
C      -1.48364191     -0.12216041      1.37594798
C      -0.92918753     -0.15412219     -0.05601596
C       0.57298103     -0.14819334     -0.05750308
C       1.55669319      0.94864073     -0.33652606
C       1.57749952     -0.32380073     -1.12486884
C       1.53850232     -1.29045326      0.01761288
N      -1.43200141      0.92929380     -0.91434118
H      -1.10792454     -0.96089628      1.96556932
H      -1.18567585      0.80097706      1.87904255
H      -2.57480914     -0.17073390      1.37058780
H      -1.24874527     -1.09169900     -0.52391820
H       2.35976867      1.15439292      0.37037157
H       1.17148203      1.82234348     -0.84983450
H       1.43934021     -0.48260942     -2.18027194
H       2.34009404     -1.28470405      0.75549577
H       1.13452340     -2.27657444     -0.19019076
H      -1.29750627      1.82361348     -0.45341794
H      -2.43139247      0.82668554     -1.04773941
