16
b3lypvtz=-181123.63242322
C       2.54461073     -1.47663855     -0.08055676
C       1.70716494     -0.63909580      0.11553039
C       0.68793574      0.39587558      0.33038898
C       1.19906986      1.76585834     -0.16674493
C      -0.62353273      0.01075025     -0.31267529
C      -1.76527018     -0.11775456      0.36433013
N      -3.02769951     -0.35925968     -0.17222884
H       3.28168141     -2.22141891     -0.24738300
H       0.52282759      0.47305651      1.41037195
H       2.14498279      2.02577940      0.30981101
H       1.35766281      1.74551910     -1.24562381
H       0.46369809      2.53852023      0.05854410
H      -0.60477310     -0.14731086     -1.38702355
H      -1.77423086      0.03104158      1.43953626
H      -3.64841788     -0.88356794      0.42404235
H      -3.02929470     -0.71874969     -1.11521300
