11
b3lypvtz=-213012.3553157
C      -2.03005825     -0.59758902      0.00000044
C      -0.70616565     -0.45336101      0.00000450
N       0.23853754     -1.50538323     -0.00001858
C       1.37303754     -0.93195111     -0.00000438
O       1.39834628      0.43728129     -0.00000243
C       0.04633308      0.82409285     -0.00000832
N      -0.36364206      2.00972626      0.00000096
H      -2.66941037      0.27278445      0.00000059
H      -2.47459757     -1.58182396      0.00000029
H       2.34042717     -1.41190176      0.00001386
H       0.40029429      2.68223124      0.00000307
