14
b3lypvtz=-224573.75851837
C      -2.49811725      0.26123299      0.29809791
N      -1.64552802      1.20869072      0.28545081
N      -0.31308642      0.95621455      0.23485595
C       0.21848798     -0.32590898     -0.17563468
C       1.73708036     -0.33207897     -0.10703738
N       2.47455634      0.40994634      0.59327535
O       2.32902398     -1.28272130     -0.87814695
H      -3.53814400      0.54283955      0.39514403
H      -2.26070718     -0.79869316      0.23307644
H       0.17650607      1.75414181     -0.13973692
H      -0.11530220     -0.60212390     -1.18942348
H      -0.14981204     -1.10523750      0.49848744
H       1.91180331      1.03863289      1.15989673
H       1.67323906     -1.72493504     -1.42700528
