13
b3lypvtz=-213778.98123659
C       1.74219116     -1.07517940     -0.00000387
N       0.38906796     -0.55542822     -0.00000865
C      -0.79019781     -1.26274529      0.00002558
N      -1.83343492     -0.47828869     -0.00008622
C      -1.33796743      0.80877643      0.00001865
C       0.03019658      0.76529490     -0.00000955
O       1.02094749      1.69611867     -0.00000771
H       1.69478934     -2.16168159      0.00003188
H       2.28508040     -0.74400151      0.88536263
H       2.28507666     -0.74405718     -0.88539470
H      -0.80048159     -2.34070560      0.00005560
H      -1.98133162      1.67273797      0.00006224
H       0.62340378      2.57194450      0.00005210
