17
b3lypvtz=-215289.98129122
C      -2.48897476     -0.40971721     -0.54767321
C      -1.38067748     -0.53368963      0.50842987
C      -0.16795596      0.31147372      0.22675253
N      -0.28286090      1.74947978      0.18579005
C       1.05381612     -0.19717162      0.00664446
N       2.17080736      0.54318138     -0.39392224
O       1.30193665     -1.54059646      0.12147073
H      -3.35309754     -1.02099568     -0.28071701
H      -2.13297531     -0.73787165     -1.52604365
H      -2.83787683      0.62045712     -0.64625956
H      -1.79603858     -0.24995982      1.48433929
H      -1.07880546     -1.57668271      0.59643808
H      -0.70714939      2.10734410      1.03588089
H      -0.87221052      2.05512378     -0.58087046
H       2.97400889      0.37504085      0.20144710
H       1.93667963      1.52902428     -0.39917743
H       1.97998506     -1.76583023     -0.52699045
