16
b3lypvtz=-232766.66973695
C       1.83786635     -1.16601968     -0.57553723
C       1.16137198     -0.71522022      0.72246567
C      -0.18315155      0.00396827      0.54312379
C      -0.05157780      1.39542436     -0.05156658
O       0.98453583      2.00257745     -0.14915065
C      -1.21666373     -0.81911793     -0.22339315
F      -2.48229999     -0.24676998     -0.07333358
H       2.80119618     -1.62823028     -0.35728258
H       2.02125629     -0.32216979     -1.24028922
H       1.24204471     -1.90393211     -1.11623724
H       1.00399062     -1.57973995      1.37244109
H       1.82971671     -0.03883716      1.25579054
H      -0.62334276      0.16950297      1.53611573
H      -1.00493001      1.84961592     -0.38595313
H      -1.00713360     -0.86059588     -1.29355276
H      -1.26432823     -1.83682798      0.16832330
