17
b3lypvtz=-215274.737624
C       0.35691546     -1.04810060      0.48383474
C      -1.07537934     -0.67096336      0.02913776
C      -0.46754124      0.56313816     -0.71852267
C       0.92805830     -0.13432016     -0.62370983
N       2.00642682      0.76432446     -0.22403561
O      -0.50028377      1.72277507      0.08308200
N      -2.06092958     -0.48234179      1.06981319
H       0.56173638     -0.63564996      1.47326448
H       0.63804160     -2.10046104      0.47405000
H      -1.45162936     -1.39876420     -0.69161810
H      -0.85599146      0.78349748     -1.71734698
H       1.15025553     -0.69661610     -1.53401453
H       2.64415127      0.31535047      0.42029737
H       2.54500752      1.09310949     -1.01547313
H       0.43415335      1.92186147      0.27742054
H      -2.98836314     -0.39165365      0.67105150
H      -1.86462832      0.39481428      1.54276928
