12
b3lypvtz=-223843.6892663
C       0.52260197     -0.65788592      0.36989401
C      -0.73337173     -0.08193466      0.35545007
N      -0.56215344      1.20421257     -0.02011282
N       0.75195873      1.52821948     -0.24229622
C       1.38644365      0.40226342     -0.00615383
O       2.73481266      0.36825621     -0.15611551
N      -1.98754141     -0.57944562      0.70425877
H       0.77054431     -1.68149030      0.59220358
H      -1.24599824      1.93843838     -0.00868311
H       3.05095671     -0.50878078      0.07670770
H      -1.97386492     -1.57208018      0.88188431
H      -2.71438829     -0.35977263      0.03700479
