13
b3lypvtz=-239458.92949222
C      -1.40428976      0.13948586     -0.29507056
C      -0.11205105     -0.69452428     -0.37300631
C       0.91574541      0.35554553     -0.07272357
C       0.31107155      1.47589505      0.32029317
O      -1.06121030      1.42414215      0.27722144
O       2.26084279      0.13143489     -0.16352702
O      -0.03052825     -1.80410834      0.53648569
H      -2.15741103     -0.33636878      0.33192963
H      -1.82182378      0.31905830     -1.28689662
H       0.01275966     -1.15504010     -1.35383498
H       0.73472208      2.40626539      0.66159424
H       2.41678664     -0.80880861     -0.01713734
H      -0.06461398     -1.45297706      1.43467226
