16
b3lypvtz=-181122.4749067
C       3.54955888     -0.28148496     -0.37469316
C       2.43074269     -0.24618360      0.05682351
C       1.06403732     -0.18656443      0.56162045
C       0.14897039      0.69999262     -0.30402903
C      -1.28073983      0.84729704      0.24801902
C      -2.08074067     -0.42825556      0.23243700
N      -3.12237176     -0.68066627     -0.44214173
H       4.54098702     -0.31845053     -0.75129181
H       1.07789813      0.19640140      1.58696297
H       0.66522355     -1.20251214      0.61888444
H       0.11244675      0.29678557     -1.31793826
H       0.59792007      1.69177407     -0.37907127
H      -1.81306063      1.60378250     -0.33364907
H      -1.22631672      1.21429366      1.27941762
H      -1.71671172     -1.23052928      0.87962195
H      -3.39029449      0.12711790     -1.01109064
