11
b3lypvtz=-192041.89578207
C      -0.57171206      2.40639653      0.25380358
C      -0.43301597      1.26287923     -0.07624277
C      -0.31412094     -0.15319191     -0.42509593
C      -1.03942871     -0.99396741      0.66000507
O      -1.97907843     -1.69405359      0.42287626
C       1.07428300     -0.60595588     -0.51671789
C       2.19611427     -1.02532218     -0.55448307
H      -0.68413634      3.42509547      0.53123201
H      -0.83433030     -0.35069885     -1.36650606
H      -0.60875323     -0.88718023      1.67212027
H       3.19437871     -1.38400118     -0.60109147
