17
b3lypvtz=-215283.03221366
C      -1.67853076     -1.13266260      0.77430222
C      -1.05151672     -0.33905574     -0.37948383
N      -1.90904894      0.82234805     -0.66168836
C       0.34488734      0.13770771     -0.04323043
N       0.44247932      1.29059648      0.72611415
C       1.41658341     -0.54030032     -0.46696543
O       2.68305203     -0.19680607     -0.00630975
H      -1.09053775     -2.02430426      0.98775258
H      -1.73376177     -0.52578451      1.67867178
H      -2.69341946     -1.44622638      0.51670698
H      -0.95934185     -1.01682234     -1.23822208
H      -1.54740974      1.35246802     -1.44610167
H      -2.84423895      0.51841423     -0.90415098
H       1.27391212      1.37668122      1.28598896
H      -0.41098333      1.58925073      1.16660538
H       1.33360752     -1.42203144     -1.08857133
H       3.31047651     -0.24686279     -0.73241718
