13
b3lypvtz=-211304.10995713837
C       0.92947721      1.03743671     -0.21989525
N       2.27992606      1.01743060     -0.40295762
N       2.72366743     -0.18374686     -0.32050973
N       1.62876612     -0.98857298     -0.07348439
C       0.47142692     -0.27384930      0.00005073
C      -0.81482409     -0.76553011      0.23550705
N      -1.84455963      0.27637602      0.25144669
H      -1.91018614      0.80266940     -0.63581358
H      -1.69089433      0.99522290      0.97812795
H      -2.75838550     -0.13464026      0.42479983
H       0.38012962      1.96385752     -0.25518770
H       1.75837164     -1.97877795      0.02722380
H      -1.15291531     -1.76787569      0.40227201
