15
b3lypvtz=-191221.65225771
C       1.09182347      1.74285508     -0.53126824
C       0.70340596      0.63906825      0.09616624
C       1.53498990     -0.61997318      0.10977915
N       0.71136716     -1.80894883     -0.10245824
C      -0.60488341      0.59380443      0.87374057
C      -1.72192311      0.09027945      0.07449767
N      -2.60650903     -0.27043005     -0.56670991
H       2.01266184      1.77110972     -1.09965757
H       0.50866890      2.65424538     -0.50120109
H       1.98422289     -0.71842807      1.10463239
H       2.36454168     -0.50142227     -0.59869875
H       0.35627670     -1.84906200     -1.05023863
H       1.24172902     -2.65399838      0.06371970
H      -0.86741642      1.59479889      1.22000699
H      -0.50452054     -0.05016844      1.74957273
