16
b3lypvtz=-204459.89873884
C      -1.79530286     -1.33686017     -0.32164851
C      -1.02122575     -0.27934736      0.44423085
C      -1.34559020      1.21232185      0.13591455
C       0.13962741      1.41405439     -0.26460357
N       0.35283555     -0.01766797     -0.03435829
C       1.51391723     -0.67882643      0.15231112
O       2.61719161     -0.21726270     -0.06699201
H      -1.36621638     -2.32865880     -0.17043002
H      -2.83201699     -1.36586664      0.02057936
H      -1.78943876     -1.12261054     -1.39138053
H      -1.04219836     -0.50174620      1.51514784
H      -1.67831222      1.79741386      0.98915338
H      -2.05033731      1.34106777     -0.68301696
H       0.32575722      1.72880554     -1.29146291
H       0.72654646      2.04302775      0.40640242
H       1.35741835     -1.71037434      0.52054829
