17
b3lypvtz=-191991.09141652
C      -1.68914278     -1.32471283      0.00949379
C      -0.33634898     -0.68914886     -0.02079839
N       0.74848556     -1.35261991      0.12020756
C       1.85381949     -0.39221907     -0.03182294
C       1.19868587      1.00004071      0.05109590
N      -0.19578595      0.67700648     -0.26491702
C      -1.21539348      1.65023401      0.06228074
H      -1.56788796     -2.39867954      0.11724856
H      -2.23910324     -1.11688874     -0.91085163
H      -2.28882489     -0.95141980      0.84244745
H       2.61520637     -0.55170424      0.73121763
H       2.32814937     -0.55077280     -1.00565076
H       1.61080858      1.72511725     -0.65147815
H       1.27030549      1.42480201      1.06313405
H      -2.19396968      1.29686466     -0.25653918
H      -1.25793619      1.87405862      1.13870235
H      -1.01331357      2.58314405     -0.46550098
