16
b3lypvtz=-181121.50214151
C      -1.86754672     -0.84869842      0.06709531
C      -0.80670231      0.16198014      0.55397821
C       0.51499682     -0.08007963     -0.14645803
N       1.50308075     -0.57102235      0.45964210
C       2.72562330     -0.80493165     -0.28371553
C      -1.24813942      1.54096412      0.34267667
C      -1.60850491      2.66852137      0.14617723
H      -1.53811454     -1.86492139      0.28306340
H      -2.02979943     -0.75368121     -1.00725979
H      -2.81796292     -0.67231523      0.56938721
H      -0.62958723      0.00413731      1.62002717
H       0.54434904      0.18247955     -1.21398241
H       2.98530495     -1.86345044     -0.21946187
H       2.66126378     -0.51666399     -1.34117914
H       3.53957222     -0.24978806      0.18645059
H      -1.92783338      3.66746991     -0.01644112
