14
b3lypvtz=-227002.69956819
N       2.68231912      0.70666669      0.31475588
C       1.46992424      0.37846534      0.22751773
O       0.52542725      1.29530096      0.53562258
C      -0.82929022      1.12384873      0.09935467
C      -1.27068356     -0.31595333      0.25288041
C      -0.27402518     -1.17411892     -0.49552932
O       1.07208085     -0.89088277     -0.07584429
H       3.27242421     -0.09343914      0.10762773
H      -1.41219270      1.80754800      0.71256383
H      -0.90975338      1.44546190     -0.94469895
H      -1.29401368     -0.59229841      1.30864188
H      -2.27239140     -0.45364018     -0.15838311
H      -0.34663451     -0.99963928     -1.57408966
H      -0.41329105     -2.23731958     -0.31051940
