12
b3lypvtz=-226226.72801692
C       2.24892718     -0.69051915     -0.17316375
O       0.94432214     -0.90509414      0.35959040
C      -0.07169151     -0.17219888     -0.27266853
C       0.03693071      1.27814910     -0.01910055
N       0.13306724      2.40289496      0.20311182
C      -1.40740640     -0.69675231      0.29483481
O      -2.43518236     -0.66038510     -0.31416680
H       2.28595569     -0.95445750     -1.23480659
H       2.56251869      0.34897082     -0.04682911
H       2.91819400     -1.34033251      0.38433501
H      -0.08560041     -0.32911568     -1.35825404
H      -1.31140196     -1.12034062      1.31108934
