17
b3lypvtz=-191984.72572824
C      -0.44187345     -1.87574660      0.12289709
C      -0.65303021     -0.38727300      0.02809916
C      -1.91100727      0.09395508     -0.03391272
N      -2.29917286      1.43844955     -0.09157380
C       0.50964458      0.48535159      0.02359650
C       1.79197260      0.08187866     -0.00260469
N       2.90650236      0.91618233     -0.07792731
H       0.11184560     -2.14828836      1.02703127
H       0.13045255     -2.25939084     -0.72765326
H      -1.39407178     -2.40562270      0.14254923
H      -2.74413015     -0.59581092      0.02279449
H      -3.21614517      1.57692750     -0.48624289
H      -1.63235012      2.05525652     -0.53085960
H       0.33115140      1.55652827      0.07033089
H       2.04020756     -0.97157668     -0.03448388
H       2.73582149      1.87875110      0.17345268
H       3.73418286      0.56042846      0.37450687
