13
b3lypvtz=-213786.36258661
C      -1.77810824      0.52004071      0.11940582
C      -0.83053310     -0.66656619      0.27611639
N       0.49089897     -0.42424574     -0.29787946
C       1.51421516      0.07686980      0.42978815
O       1.48774605      0.34935752      1.61104023
C       2.74639669      0.27129041     -0.36667528
N       3.71786631      0.43917472     -0.95974692
H      -2.74928016      0.28245029      0.55590815
H      -1.38089523      1.39804094      0.62809207
H      -1.93210181      0.76884238     -0.93172847
H      -1.23910663     -1.55580077     -0.20500376
H      -0.68134796     -0.89541606      1.32949013
H       0.63424996     -0.56403803     -1.28493357
