20
b3lypvtz=-205977.56313234
C      -2.17826208      1.21799012     -0.24854770
C      -1.77483223     -0.12778554      0.34868054
O      -2.02440339     -1.19479697     -0.57264667
C      -0.33818556     -0.17088087      0.89007541
C       0.76508891      0.05753506     -0.14469005
C       2.16567141     -0.08867937      0.44425802
N       3.18715818      0.10474254     -0.58999537
H      -2.04991265      2.02539555      0.47540879
H      -3.22450912      1.19114623     -0.55263567
H      -1.57871614      1.46064360     -1.12891359
H      -2.44375025     -0.34533303      1.18437696
H      -1.53178804     -1.02135133     -1.38123596
H      -0.19560128     -1.15084147      1.35364344
H      -0.24973951      0.57042471      1.69114098
H       0.67445770     -0.65619352     -0.96791700
H       0.67259789      1.05656716     -0.58250884
H       2.28305552     -1.10034110      0.84092045
H       2.26914696      0.59696263      1.29867937
H       3.18917817      1.06836159     -0.90587850
H       4.11099454     -0.07565601     -0.21542061
