17
b3lypvtz=-215265.13013393
C       0.02219825      1.44931384     -1.58787949
C      -0.01664730      0.47777605     -0.48845835
O      -0.24011677      0.06848288     -1.85835713
C      -1.25925348      0.38472271      0.39083969
N      -1.82368176     -0.95116158      0.56784196
C       1.30116234     -0.00081788      0.08523534
N       1.23861873     -1.41648454      0.47087790
H       0.97540367      1.81972645     -1.95357409
H      -0.81989674      2.11773084     -1.73752392
H      -2.03354243      1.02595148     -0.03492743
H      -1.01958898      0.79315679      1.37659499
H      -1.10123396     -1.56418355      0.92909796
H      -2.09002361     -1.32002929     -0.33851997
H       1.51785712      0.58314643      0.98384644
H       2.09288646      0.21588306     -0.64306987
H       2.09107428     -1.69134841      0.94330257
H       1.16478416     -1.99186529     -0.36082035
