18
b3lypvtz=-205243.92297486
C      -2.57015600      0.88831442     -0.38639153
C      -1.90629518     -0.48637144     -0.32954754
C      -0.86265451     -0.62748992      0.78290828
N       0.28612433      0.25622915      0.63280622
C       1.40752746     -0.11152500     -0.04966238
C       2.50978002      0.92976155     -0.11384802
O       1.52858348     -1.20537938     -0.57527768
H      -3.30839226      0.93699864     -1.18794971
H      -3.08410136      1.12040346      0.55015377
H      -1.83774010      1.67672660     -0.57117505
H      -1.42536285     -0.71382725     -1.28299637
H      -2.66707559     -1.25626592     -0.17255178
H      -1.31829558     -0.42402042      1.75513075
H      -0.47977712     -1.64675341      0.79632965
H       0.24686649      1.17712252      1.03127500
H       2.27951415      1.85058094      0.42217136
H       2.70420469      1.16668577     -1.15973170
H       3.42114491      0.49616767      0.29685773
