14
b3lypvtz=-224612.16228642
C       2.36560065     -0.86744835      0.06145671
C       1.20049280      0.09154232     -0.02177899
N       1.27477187      1.35961665     -0.10619075
N      -0.02979849     -0.55501198     -0.01115780
C      -1.30574593      0.04801054      0.02294108
N      -1.59859685      1.26401240      0.08634705
O      -2.29736147     -0.90005131      0.00661342
H       3.30724835     -0.32477125      0.03265088
H       2.34477740     -1.57516315     -0.76979002
H       2.32786981     -1.44246890      0.98975019
H       2.24215835      1.66552835     -0.12308943
H      -0.00905105     -1.52891435      0.24261920
H      -0.74964268      1.82263242      0.14873375
H      -2.06275177     -1.61410139     -0.59658428
