14
b3lypvtz=-203637.08498588
C      -1.55897502     -0.45001160      0.11755105
C      -0.37455181     -0.19633612      1.00473929
C      -0.45740146      0.46651442     -0.35506719
C       0.75326381     -0.33393232     -0.74748321
N       0.74674557     -1.06899622      0.59421425
C       1.84603991     -0.15783248      0.23289713
O      -0.66462710      1.80308065     -0.67095717
H      -1.70214901     -1.43256225     -0.31740144
H      -2.46430315      0.06380374      0.41644363
H      -0.43906297      0.21390200      2.00258012
H       0.88916592     -0.87428703     -1.67633465
H       2.77617027     -0.67597312      0.03760238
H       1.94203218      0.78438124      0.76062963
H      -1.29234713      1.85824910     -1.39941381
