10
b3lypvtz=-246322.40579102
C      -1.70256912     -0.11672392      0.00974749
N      -0.54913174     -0.86046137     -0.48321741
C       0.56473796     -0.32033153     -0.50729604
O       0.94007728      0.95282781     -0.12324573
N       2.31940936      1.05525286     -0.35632073
N       2.74416252      0.00190088     -0.81806271
O       1.72006963     -0.92739038     -0.95167521
H      -2.57916154     -0.75699414     -0.04946412
H      -1.88854360      0.78042290     -0.58644964
H      -1.56895074      0.19139688      1.04998412
