16
b3lypvtz=-181127.30781524
C      -1.65458495      0.09289234      0.95561987
C      -0.84807269     -0.81986379      0.02083133
C      -0.08053544     -0.07432855     -1.04764626
N      -0.26286521     -0.18099039     -2.29851380
C       0.98878095      0.91668582     -0.59224656
C       1.94553194      0.37462774      0.36630536
C       2.73371650     -0.07616682      1.15021513
H      -2.22179296     -0.50531247      1.66920070
H      -1.00618328      0.75656487      1.52793650
H      -2.36186981      0.70662175      0.39547229
H      -0.13878474     -1.40006314      0.61656285
H      -1.51545536     -1.53092610     -0.47016057
H      -1.01286295     -0.84438205     -2.50047125
H       0.49322517      1.78589973     -0.14630824
H       1.50366000      1.26898319     -1.48604640
H       3.43819282     -0.47024213      1.83914904
