13
b3lypvtz=-216144.60961136
C       0.46415085      1.16580277     -0.14331712
C      -0.83611151      0.43082237     -0.41857044
C      -0.89207195     -0.63156169      0.66992315
C      -0.39469133     -0.99814846     -0.70106631
O       1.01881810     -1.04969245     -0.58630481
C       1.16695164     -0.07258218      0.44275965
O       0.27306535     -0.50012454      1.46928408
H       0.95917502      1.52853183     -1.04241405
H       0.36677259      1.96487393      0.58950568
H      -1.71238244      0.88061354     -0.85660167
H      -1.76691354     -1.00575125      1.17403794
H      -0.83447422     -1.69309261     -1.39613578
H       2.18771142     -0.01969127      0.79889970
