15
b3lypvtz=-191210.3635568
C       2.93773823     -0.17521493      0.08265774
N       1.65308993     -0.32648456     -0.56181217
C       0.60972332      0.03375610      0.04891207
C      -0.74522259     -0.10544171     -0.58247757
N      -0.91460690     -0.58690118     -1.74961081
C      -1.88680311      0.35395909      0.23839573
C      -3.15561004      0.30651768     -0.15796509
H       3.42174287     -1.15220728      0.14318013
H       2.87830096      0.25956618      1.08837886
H       3.57642440      0.45313463     -0.54155498
H       0.64530434      0.46120068      1.06009810
H      -0.00439390     -0.84096677     -2.14062850
H      -1.64506379      0.74904206      1.21945844
H      -3.41320508     -0.08443576     -1.13348795
H      -3.95741864      0.65447577      0.47882946
