16
b3lypvtz=-204439.49927809
C      -2.18648894     -1.23006683      0.16814161
N      -1.21360998     -0.73785501     -0.47354895
C      -0.70707656      0.52071472     -0.10955656
C      -1.46453557      1.60244648      0.10880663
O       0.64597068      0.63155882     -0.13270667
C       1.43575121     -0.52997993      0.16872846
C       2.89004549     -0.13860315      0.02058660
H      -2.62375690     -0.74883389      1.04777873
H      -2.61631822     -2.17129317     -0.16490382
H      -2.53557573      1.55520707     -0.00168365
H      -1.00131677      2.55609167      0.30939819
H       1.17051119     -1.34084169     -0.51083464
H       1.22121534     -0.85714943      1.19133182
H       3.53076653     -0.99198720      0.24770981
H       3.09785191      0.18690998     -0.99884217
H       3.14494133      0.67511655      0.69977660
