14
b3lypvtz=-231994.45416247
O       1.45462053     -1.66109197     -0.06780953
C       0.30992469     -1.38464333      0.18519371
C      -0.33208277     -0.07650096     -0.09932801
C       0.55744572      1.01082158     -0.62790107
F       1.26386026      1.61027583      0.41707627
C      -1.77599244     -0.16132022     -0.59480119
C      -1.50531464      0.30925701      0.78553979
H      -0.36644510     -2.13308265      0.65354248
H      -0.02512875      1.79409805     -1.11602368
H       1.28973213      0.60334012     -1.32489644
H      -2.19453458     -1.14888685     -0.73305958
H      -2.06651149      0.55764763     -1.34763967
H      -1.74109850     -0.34972914      1.61029179
H      -1.60036406      1.36164188      1.01080111
