18
b3lypvtz=-181881.20855308
C      -2.53792878      0.56636285      0.13039963
C      -1.31283788     -0.30764575      0.01369975
C      -0.45630431     -0.28020269     -1.21914939
C       0.07030024      0.28368663      0.08667547
C       1.16436175     -0.41608336      0.84585826
C       2.51937939      0.17908203      0.92576844
N       2.30121884     -1.04851412      0.14700652
H      -2.79468904      0.75356308      1.17555897
H      -3.40310461      0.10138569     -0.34765640
H      -2.37647631      1.53382353     -0.34950027
H      -1.40911830     -1.28298264      0.47876411
H      -0.03862457     -1.21494357     -1.56898750
H      -0.71406605      0.41777473     -2.00512667
H       0.10019602      1.36647350      0.13919396
H       0.83160326     -1.00084401      1.69715954
H       3.12024589      0.05823319      1.81886758
H       2.68642559      1.10717850      0.39049386
H       2.24941889     -0.81634759     -0.84025630
