15
b3lypvtz=-219520.24921073
C       3.14194801     -0.21526185      0.00003220
C       1.82815563     -0.45465671     -0.00005353
N       0.83768456      0.50599237     -0.00001562
C      -0.54430910      0.30586719      0.00000531
C      -1.34492136      1.57505688     -0.00001510
C      -1.12397547     -0.89621151      0.00003592
F      -2.48143828     -1.00776204      0.00002338
H       3.84180869     -1.03554345     -0.00002956
H       3.54650431      0.78912290      0.00015960
H       1.46641742     -1.47321126     -0.00017731
H       1.13799191      1.46584438      0.00006990
H      -1.11204014      2.17620608      0.88296919
H      -1.11205373      2.17617202     -0.88302539
H      -2.40941477      1.36355459     -0.00000040
H      -0.63840671     -1.85790459      0.00007041
