13
b3lypvtz=-234621.74216557812
C       1.28665062      0.51644469     -0.38551151
N       0.15219340     -0.09205210     -0.07497520
C      -1.12033472      0.31070160     -0.16437131
N      -2.13639788     -0.46398494      0.20545498
N      -1.84831564     -1.63404147      0.65950146
O      -1.33185736      1.56479140     -0.65737933
N       2.48082608     -0.19879577     -0.16507131
H       1.22756505      1.51811219     -0.78661612
H       0.20636764     -1.04297509      0.30536437
H      -2.73411090     -2.08153733      0.89052313
H      -2.28889019      1.69373447     -0.65462176
H       3.01057449     -0.34969843     -1.01683708
H       3.09572939      0.25930080      0.49899424
