16
b3lypvtz=-204454.35291679
C      -3.29659370     -0.50882503      0.00304628
N      -1.85194997     -0.40619598      0.04737865
C      -1.31939464      0.72622325     -0.09818579
C       0.16707629      0.94455736     -0.06172001
C       0.99091877     -0.34020462      0.06310570
C       2.44109681     -0.04420184      0.32828397
O       3.36101168     -0.40962475     -0.35737362
H      -3.65373407     -0.94201320      0.93931012
H      -3.58182289     -1.19845522     -0.79364031
H      -3.80170824      0.45254366     -0.16009849
H      -1.92338891      1.63226559     -0.25861177
H       0.45604054      1.49594077     -0.96287838
H       0.38529183      1.62426698      0.77165725
H       0.90473353     -0.95500230     -0.83128845
H       0.60165327     -0.92339079      0.90378401
H       2.63205069      0.56306012      1.24180184
