12
b3lypvtz=-280455.35794593
N       2.48805097     -0.45598647     -0.22802579
C       1.09447759     -0.76948361      0.01986406
C       0.25414095      0.47957804      0.08673960
O       0.70769584      1.59320718      0.18235863
C      -1.27203235      0.29577418      0.04426997
F      -1.63062139     -0.21638814     -1.16812145
F      -1.66028529     -0.59911937      0.99990758
H       3.10075940     -1.14589121      0.18294955
H       2.71388915      0.45090717      0.16319780
H       0.89743523     -1.30305641      0.96312576
H       0.68399321     -1.40865453     -0.76937927
H      -1.79013432      1.24116616      0.20281856
