16
b3lypvtz=-204418.2802523
C       0.31365613      2.00642772      0.07488644
C       0.03855688      0.55633588     -0.13250147
C      -0.96923403     -0.44852250      0.42629530
C       0.51317755     -0.62102312      0.66636987
N       1.26585264     -1.73577347      0.14184065
C      -1.27878126     -0.76232531     -1.02400548
O      -0.21587070      0.12280751     -1.48809807
H       0.43513655      2.22384106      1.13683801
H       1.23580237      2.29441317     -0.43638001
H      -0.49720025      2.62340877     -0.31695528
H      -1.69491547     -0.35912994      1.22168802
H       0.78813663     -0.37338232      1.68527258
H       1.20750697     -1.72798819     -0.87181158
H       2.24720300     -1.61717102      0.36705577
H      -2.24837904     -0.38992920     -1.35814051
H      -1.14064795     -1.79198906     -1.36283061
