14
b3lypvtz=-250298.96030369
C       0.90632542      0.66925083      0.89022633
C      -0.09251464      0.42000724     -0.20609906
C      -0.24769438     -0.81363669     -0.71007630
O       0.36896848     -1.93062726     -0.24851271
O      -1.09972707     -1.08182525     -1.73191795
N      -0.90027980      1.53058590     -0.61443386
O       0.93706592     -0.37809391      1.89686698
H       1.93645921      0.70214690      0.52739099
H       0.67977617      1.63159787      1.35332666
H       0.74556725     -1.70739383      0.62692602
H      -1.20876303     -2.03944878     -1.77260087
H      -0.39832809      2.15686464     -1.23636837
H      -1.71257769      1.20584155     -1.12413744
H       0.08572224     -0.36526921      2.34940960
