15
b3lypvtz=-214494.79615288
C      -1.85544862     -0.91994969      0.28950792
C      -1.79919942      0.58249263      0.44281896
C      -0.69961332     -0.15109630     -0.27245723
N       0.60823808     -0.33004119      0.31981495
N       1.31988676      0.94962468      0.37880037
C       2.47970683      0.81410115     -0.13458517
O       2.99435802     -0.30502683     -0.65051991
H      -2.56799064     -1.35118995     -0.39926973
H      -1.67693657     -1.52291628      1.17094383
H      -1.56867629      0.98264478      1.42031225
H      -2.47853786      1.18760569     -0.14140742
H      -0.65176358     -0.03988128     -1.34770766
H       0.48742294     -0.60972923      1.28861142
H       3.14508555      1.66805948     -0.17902441
H       2.26346812     -0.95469767     -0.54569321
