12
b3lypvtz=-226245.69096417
O       0.95809764      0.19756796     -0.07382358
C       0.31445886      0.34806954      1.14265930
C      -0.27755005     -0.63438712      1.98791388
C      -0.85376330      0.03156504      3.03941680
N      -0.64044867      1.38435192      2.85325507
H      -0.95850336      2.12567397      3.45049610
C       0.07128267      1.57404057      1.70620880
O       0.39607927      2.83051982      1.30650877
H       1.73676368     -0.35499525      0.04764586
H      -0.28135013     -1.69982372      1.83051749
H      -1.39288702     -0.33244706      3.89476017
H       0.85262042      2.74896433      0.46074135
