16
b3lypvtz=-204442.02313374027
C      -0.36423187      1.61984857      0.89567597
C      -0.24892640      0.67722431     -0.04005698
C       1.04906467     -0.02578845     -0.37411597
C       0.96251693     -1.53312019     -0.12808248
N      -1.29607343      0.31705156     -0.90992179
C      -2.43934365      0.03605685     -0.44870000
O       2.09470903      0.56274216      0.39337093
H       0.49181465      1.91690570      1.48021600
H      -1.29835109      2.14370579      1.04405205
H       1.22579031      0.14578562     -1.44390946
H       0.78394095     -1.73101308      0.92986745
H       1.89579243     -2.02009878     -0.42128307
H       0.15782139     -1.97901168     -0.71245919
H      -3.25028157     -0.18274356     -1.13910161
H      -2.65930366      0.00265432      0.62305590
H       2.89506130      0.04980087      0.25139222
