10
b3lypvtz=-279683.59356332
C      -1.92682445      0.05611745     -0.58032081
C      -0.73423163      0.17972785     -0.03146498
F      -0.50602782      0.98708160      1.01108517
O       0.35084341     -0.50136125     -0.48141122
C       1.61826788     -0.43771087      0.02023535
N       2.16386215      0.18373481      0.94646596
F       2.31920156     -1.26921790     -0.73902548
H      -2.06662068     -0.60538886     -1.41851043
H      -2.75568971      0.61922620     -0.18555748
H       1.53701928      0.78779097      1.45850392
