18
b3lypvtz=-181893.45089269
C      -0.37141864      1.85286029      0.12221843
C      -0.39288680      0.52273425      0.18579502
C      -1.42134941     -0.19933882      1.03641207
N      -2.40770542     -1.00599122      0.30513452
C       0.56051045     -0.35291114     -0.55460884
C       1.87301432      0.12841086     -1.09951273
C       1.85938648     -0.78698464      0.09520736
H      -1.06600579      2.45091068      0.69925205
H       0.33231616      2.39088502     -0.49892564
H      -0.91260124     -0.86769042      1.73659638
H      -1.96462053      0.53269778      1.63653329
H      -1.97030990     -1.80486704     -0.13682093
H      -2.83375443     -0.45525975     -0.43157410
H       0.07821007     -1.12824241     -1.13985912
H       2.15107094      1.15913603     -0.93297735
H       2.20429926     -0.27189753     -2.04766532
H       2.10099094     -0.35267586      1.05560948
H       2.18085354     -1.81177609     -0.03081457
