14
b3lypvtz=-180350.30680958
C      -1.24875692      0.05353054     -0.65421992
C      -0.63982358      0.60282882      0.67763328
C       0.63943026      1.32766153      0.35911110
C       1.54254070      0.42322262     -0.01244450
C       0.94756429     -0.92819014      0.15120155
C      -0.43462052     -1.19532442     -0.38849290
N      -0.21894482     -0.82974291      1.05488574
H      -2.30916323     -0.16241551     -0.53464968
H      -1.08688079      0.62151793     -1.57152777
H      -1.31583741      1.06802580      1.38805119
H       0.73212281      2.40274769      0.30591491
H       2.53505343      0.60675086     -0.39591605
H       1.57787277     -1.79403381      0.30823958
H      -0.72055699     -2.19657899     -0.68778653
