14
b3lypvtz=-222173.58340645
C       1.80864230      1.06705166     -0.70951139
N       1.55843380     -0.29903529     -0.29525739
C       0.38443681     -0.65986498      0.03532411
N       0.09629095     -1.96327753      0.36706218
N      -0.72410471      0.19803918      0.04701364
N      -1.92728038     -0.19448070      0.48064398
N      -2.79060474      0.70406517      0.41762530
H       2.87063036      1.18024840     -0.92165858
H       1.26875274      1.34203436     -1.62579440
H       1.55541386      1.80582954      0.06324013
H       0.91217292     -2.50482108      0.59724461
H      -0.72473891     -2.12174138      0.92607917
H      -0.63499224      1.15695962     -0.26773749
H      -3.65305277      0.28899303      0.77457755
