14
b3lypvtz=-224556.52725254
C      -1.30670014     -1.42271780     -0.40676031
C      -1.01312792     -0.08462940      0.26029110
O      -2.26629820      0.56071216      0.48072397
C      -0.13506753      0.78871161     -0.60292728
N       1.12416642      0.92419812     -0.52566225
N       1.81898259      0.31237896      0.47140855
N       2.42306802     -0.71752604      0.13312798
H      -0.38383984     -1.97790164     -0.56928346
H      -1.97224199     -2.00603797      0.22932348
H      -1.79715964     -1.26809561     -1.36839380
H      -0.49717762     -0.25975259      1.21152582
H      -2.12295699      1.34806526      1.01542120
H      -0.64329444      1.37693998     -1.36346366
H       2.95213927     -1.00857104      0.96256865
