18
b3lypvtz=-205214.09233536
C      -2.10392031      0.05602023     -0.91713386
C      -0.87699353     -0.53313028     -0.22861634
O      -1.13845103     -0.81212654      1.15074677
C       0.36233176      0.38573169     -0.27717777
C       0.18840852      1.68001187      0.53358048
C       1.58205057     -0.36559496      0.20591128
N       2.65243834     -0.59781086     -0.43101488
H      -1.89480629      0.28285659     -1.96446325
H      -2.43613270      0.96712931     -0.42047705
H      -2.92951085     -0.65906475     -0.89385276
H      -0.60732529     -1.46555540     -0.74116570
H      -1.84915875     -1.45739028      1.20667391
H       0.52675208      0.64113632     -1.32900769
H       0.00793170      1.45689521      1.58419926
H      -0.64985961      2.27140361      0.16523809
H       1.08643920      2.29418531      0.46133560
H       1.51601751     -0.74144876      1.22874582
H       2.60583167     -0.20260330     -1.37445792
