13
b3lypvtz=-211321.69055121
C       2.10860202      0.42606847     -0.20485252
N       0.90021245     -0.27470708      0.18410996
C      -0.24873227      0.18059958     -0.07500262
N      -1.43345427     -0.45331812      0.36260432
C      -1.44449319     -1.71080973      0.49174694
N      -0.44944043      1.42716883     -0.80058093
N      -1.59059786      1.89959814     -0.85502106
H       2.74504045     -0.27840277     -0.74438809
H       2.65118345      0.69780605      0.70387003
H       1.94258748      1.31643907     -0.80939366
H      -0.57821361     -2.33198117      0.25331903
H      -2.34358107     -2.19424151      0.86486391
H      -2.25911315      1.29578025     -0.33151487
