15
b3lypvtz=-214519.88841814
N      -1.56572161      0.41763637     -1.21051256
C      -1.80257390     -0.11129908      0.13195177
C      -0.57334195     -0.87129678      0.63185682
N       0.53826206      0.03971918      0.82553887
C       1.63055798     -0.18962198      0.22841592
C       2.76829627      0.74837405      0.42327802
O       3.84287920      0.59950304     -0.10442604
H      -0.92736481      1.20363614     -1.17123970
H      -2.42715305      0.76203953     -1.61542625
H      -2.06528156      0.65170128      0.87580401
H      -2.63249455     -0.81822986      0.07895141
H      -0.33086829     -1.68173681     -0.06592791
H      -0.80928211     -1.30233389      1.60920437
H       1.80820661     -1.04543566     -0.43217228
H       2.54577971      1.59724446      1.09680355
