11
b3lypvtz=-213018.02320717
O       1.52643645      0.84898167      0.44113517
C       2.14970481     -0.04373485     -0.09215570
C       2.92688307      0.10116485     -1.31532221
C       3.09552610      1.24987508     -2.07447823
N       3.88594894      0.90534132     -3.10207826
H       4.21335881      1.49351198     -3.84937846
N       4.25991789     -0.39599618     -3.08521733
C       3.67946499     -0.88451177     -2.00314025
H       2.15978680     -1.06246026      0.34455051
H       2.70908466      2.24459013     -1.93747915
H       3.81338746     -1.92276197     -1.74443610
