15
b3lypvtz=-214488.70498744
C       3.02851310     -0.05146555      0.01055021
C       1.87856620      0.38299605      0.50493979
C       0.58692980      0.44282815     -0.25607141
N      -0.47786413     -0.27352156      0.44734648
C      -1.64206624     -0.57458666     -0.21930611
N      -2.76748742     -0.59821686      0.37831039
O      -3.77696067     -1.07704834     -0.50142533
H       3.93609957     -0.04858502      0.59946707
H       3.10632757     -0.42543666     -1.00365840
H       1.84237860      0.74971098      1.52762305
H       0.31495035      1.49528595     -0.42712471
H       0.71264968     -0.01686323     -1.23790651
H      -0.63513542      0.02694168      1.39987093
H      -1.54279386     -0.83870131     -1.27070460
H      -4.56390713     -1.02353762      0.04788914
