12
b3lypvtz=-223848.57439618
N       2.66263843      1.04285073     -0.00000025
C       2.35923257     -0.18192587      0.00000032
N       1.09751121     -0.79659699     -0.00000644
C      -0.11168296     -0.18981722     -0.00001408
N      -1.19286529     -0.88525476     -0.00002018
C      -2.38817811     -0.14041326     -0.00001140
O      -2.49280918      1.06385965      0.00004315
H       1.86057318      1.67024017     -0.00000583
H       3.15586815     -0.92296899      0.00000504
H       1.07172609     -1.80700660     -0.00000680
H      -0.11227281      0.89906435     -0.00000034
H      -3.27030428     -0.79637123     -0.00006119
