14
b3lypvtz=-203668.06455757
C      -3.03485401     -0.30084332     -0.15043698
C      -1.87050632     -0.51839605      0.04262923
C      -0.44826647     -0.74531298      0.25983830
C       0.42039529      0.38986704     -0.32316355
N       0.20535919      1.72512300      0.21838036
C       1.90408441      0.06395143     -0.22099939
O       2.35336605     -1.01419407      0.06781201
H      -4.06867130     -0.12901322     -0.31766556
H      -0.14451129     -1.69509669     -0.18520782
H      -0.24437952     -0.83551627      1.33083719
H       0.22317860      0.45382581     -1.40081872
H       0.25964566      1.71835159      1.23100359
H      -0.71683804      2.06304736     -0.02641340
H       2.55854776      0.92970537     -0.44247025
