15
b3lypvtz=-212109.07390192
C      -2.77587147     -0.66206824     -0.04404479
N      -1.79963097      0.11853272      0.18901906
N      -0.54869444     -0.30632238     -0.08009488
C       0.50336409      0.62222430     -0.08760826
N       0.41362586      1.86977374      0.12987878
N       1.72499510      0.03385236     -0.40890893
C       2.17986415     -1.17161215      0.28313338
H      -2.65950461     -1.66163133     -0.46964827
H      -3.76996670     -0.31263833      0.19731682
H      -0.43016825     -1.15530095     -0.62193705
H      -0.55952831      2.14389800      0.23182176
H       2.42339143      0.76327682     -0.42252522
H       2.21666661     -1.05821179      1.37250833
H       1.54258840     -2.02490240      0.05275690
H       3.17947011     -1.41306137     -0.07483262
