17
b3lypvtz=-171059.6666431
C       3.03555090     -0.00003386      0.19365271
C       1.84315603      0.00005691     -0.39121537
C       0.53453868     -0.00002134      0.31729046
C      -0.52342184     -1.08764587     -0.07439824
C      -1.58037866      0.00000543     -0.06202293
C      -2.89634261     -0.00001552      0.06840984
C      -0.52343398      1.08767159     -0.07417539
H       3.13693753     -0.00017386      1.27289000
H       3.95161911      0.00002893     -0.38227088
H       1.78978541      0.00019806     -1.47811576
H       0.69032816     -0.00013125      1.39665535
H      -0.64930225     -1.92943136      0.60641047
H      -0.34219898     -1.47823467     -1.07949558
H      -3.45932038      0.92366555      0.12548938
H      -3.45930885     -0.92371490      0.12530623
H      -0.34221494      1.47846855     -1.07919230
H      -0.64932434      1.92931562      0.60680599
