17
b3lypvtz=-215263.16314901
N       2.25379470     -0.52950430      0.16502997
C       1.09832852     -0.41218577     -0.73152520
C      -0.05064372      0.32151988     -0.02984291
N       0.31793107      1.63676378      0.47566650
C      -0.82356486     -0.56920726      0.97622367
O      -1.91837641     -0.73447951      0.04413319
C      -1.36854104      0.27929565     -0.82579927
H       3.09136723     -0.76229171     -0.35240824
H       2.11224403     -1.27317100      0.83836716
H       0.73494785     -1.37585305     -1.11281458
H       1.40549691      0.18200594     -1.59650011
H       0.36367910      2.29946791     -0.29199963
H       1.25772361      1.57784987      0.85849970
H      -1.12892451     -0.02811730      1.87393191
H      -0.38222987     -1.53152083      1.24950929
H      -1.30998444     -0.06049100     -1.86332155
H      -1.93588617      1.21302471     -0.77219390
