12
b3lypvtz=-202906.03480472
C       2.58758946      0.72582980     -0.14396337
C       1.48265940      0.36913795      0.15495309
C       0.15602627     -0.11086554      0.50517093
C      -0.50349929     -1.04871804     -0.55722069
N      -1.74110376     -0.36370946     -0.94916442
C      -1.78142063      0.70815717     -0.28625110
O      -0.78615221      1.00530070      0.58966092
H       3.56289838      1.05336217     -0.40565161
H       0.18151253     -0.57246971      1.49297907
H      -0.73377737     -2.02971296     -0.14155560
H       0.13786960     -1.19105650     -1.42620293
H      -2.56260239      1.45474440     -0.34145804
