18
b3lypvtz=-181910.34576324
C       0.80932523     -1.44638559      0.97760539
C       0.83959126     -0.42814948      0.11882635
C       1.92741908     -0.27899012     -0.91485222
C      -0.19939489      0.63975617      0.15386426
N       0.34267228      1.93336019      0.32347361
C      -1.50822380      0.43785734     -0.05766330
C      -2.19056031     -0.83855452     -0.44647591
H       1.56370872     -2.22336726      0.95597144
H       0.03196355     -1.53259480      1.72476453
H       2.44528746      0.67527957     -0.80878442
H       1.50102450     -0.28783435     -1.92145554
H       2.65576737     -1.08573426     -0.83880898
H      -0.36177695      2.64902400      0.43375977
H       1.02038330      1.98957874      1.07194816
H      -2.15395953      1.31100700      0.00756863
H      -1.48325918     -1.65043347     -0.60442091
H      -2.76735134     -0.70697794     -1.36722121
H      -2.90188175     -1.16329321      0.31951435
