14
b3lypvtz=-203659.19227014
C      -2.52256959     -0.54453319     -0.34199142
C      -1.48080434     -0.06735138      0.01909441
C      -0.20030260      0.52831019      0.45418147
N       0.00135169      1.90307936      0.00210155
C       0.96692648     -0.37276348      0.05318053
C       2.14947819      0.07893727     -0.34586918
O       0.74223317     -1.71137509      0.20858324
H      -3.44887553     -0.95173889     -0.66413666
H      -0.21741582      0.55048051      1.55008610
H      -0.03478951      1.94210185     -1.01042408
H      -0.74025947      2.49554867      0.35466942
H       2.93851491     -0.61504554     -0.59604385
H       2.33879638      1.13794094     -0.39191408
H      -0.20863697     -1.88172823      0.18124755
