18
b3lypvtz=-181881.21209224
C       2.27180008      0.08143488      0.64301781
C       1.18467956     -0.76516718     -0.02622961
C      -0.10666890     -0.01972786     -0.19695376
C      -1.11247967      0.25974182      0.92134120
C      -2.21245084     -0.10757404     -0.10169705
N      -1.20131355     -0.46277380     -1.15958241
C      -0.43792547      0.77965761     -1.39097097
H       1.96045287      0.41596572      1.63465427
H       2.49953749      0.96927795      0.05031731
H       3.19414269     -0.48864201      0.76175142
H       1.52349848     -1.10451419     -1.00804887
H       1.00094691     -1.66668110      0.56653320
H      -1.11315165      1.26587912      1.34272774
H      -1.04483556     -0.46033359      1.73579779
H      -2.79373953     -0.98646062      0.16856067
H      -2.89344718      0.69007231     -0.40573178
H      -0.94948700      1.73299286     -1.29554384
H       0.23044127      0.70999300     -2.23994312
