14
b3lypvtz=-227022.27746217
C      -1.88760949     -0.08513240      1.03161321
C      -0.45635561      0.21865364      0.66527938
O       0.29682598      0.80820406      1.40387700
C       0.00608832     -0.26375096     -0.70463788
N       1.34708337      0.18326201     -0.97434209
C       1.96717779      0.10352619     -2.17814358
O       3.09072179      0.49280659     -2.40934014
H      -2.14015136     -1.12420556      0.81318620
H      -2.55648013      0.54091150      0.43530650
H      -2.05046975      0.12535381      2.08529361
H      -0.07935660     -1.35864070     -0.70279445
H      -0.70438373      0.09828892     -1.45530507
H       1.83609838      0.62553968     -0.20686538
H       1.33071104     -0.36491678     -2.95302731
