16
b3lypvtz=-181164.77118505
C      -2.08566423     -0.79222803     -0.00000032
C      -0.61871468     -0.52235118     -0.00000143
C       0.38945782     -1.40316755     -0.00000145
C       1.75110966     -0.76281808     -0.00000187
C       1.44416921      0.75038527     -0.00000020
C      -0.07872647      0.85063202     -0.00000189
N      -0.81950702      1.88577646     -0.00000341
H      -2.55847214     -0.33752050     -0.87275178
H      -2.29672260     -1.86117749      0.00000278
H      -2.55847158     -0.33751545      0.87274883
H       0.26131778     -2.47846932      0.00000020
H       2.33408555     -1.06746911      0.87365226
H       2.33408422     -1.06746738     -0.87365754
H       1.85292096      1.25443855      0.87706619
H       1.85292456      1.25444175     -0.87706303
H      -0.26081204      2.73976004     -0.00000335
