10
b3lypvtz=-225478.47972754
N      -2.72867525     -1.05103104     -0.27834601
C      -1.81461860     -0.37353643     -0.10142859
C      -0.63813529      0.47798736      0.14778759
O      -0.67546939      1.65771074     -0.09611932
C       0.58293774     -0.22142226      0.69350530
C       1.82631821      0.07838401     -0.14723842
O       2.67847093     -0.73743510     -0.35283347
H       0.77358230      0.20448050      1.68538750
H       0.45402883     -1.29652160      0.79457444
H       1.88516253      1.10988581     -0.53831902
