17
b3lypvtz=-194366.37831671
C       2.28981066     -0.87602546     -0.34255008
C       1.64580664      0.22360662      0.03066845
C       0.17355853      0.41081333      0.11364897
O      -0.25738171      1.61387709     -0.49467472
C      -0.56848346      0.09551711      1.38211711
C      -0.79460029     -0.74913722      0.14687493
C      -2.10522474     -0.69385545     -0.59983419
H       3.37085247     -0.91226005     -0.36245963
H       1.76779987     -1.77865470     -0.63406002
H       2.21251167      1.11103776      0.29949130
H      -0.06429547      1.55527115     -1.43717478
H      -0.01452570     -0.32620578      2.20897884
H      -1.34719378      0.79657744      1.65323939
H      -0.33786361     -1.73077345      0.17675560
H      -2.85470329     -1.32263192     -0.11492088
H      -1.99101668     -1.05017897     -1.62656389
H      -2.49128512      0.32374650     -0.63964539
