17
b3lypvtz=-194388.47424934
C      -1.39036595     -0.09724284      1.26757596
C      -0.62012680      0.01232203     -0.05275877
O      -1.55046301      0.16042026     -1.13713751
C       0.30267754      1.20877509     -0.05723885
C       1.58149728      0.86564368      0.02884707
C       1.77014217     -0.62898088      0.08188726
C       0.36682587     -1.16752965     -0.27891336
H      -1.99379527      0.79596596      1.43331757
H      -0.70896526     -0.21643219      2.11123386
H      -2.05709593     -0.96482110      1.25126921
H      -2.23306881     -0.51224559     -1.04469066
H      -0.08880020      2.21655738     -0.08927432
H       2.40812063      1.56182536      0.08575614
H       2.54467475     -0.98002957     -0.60376159
H       2.08289798     -0.94409084      1.08322212
H       0.09371728     -2.05790710      0.28894214
H       0.32937675     -1.41866798     -1.33877725
