16
b3lypvtz=-202029.16002499
N      -2.38932228      1.19082959     -0.32494630
C      -1.38859391      0.22502067     -0.18104042
N      -1.86332684     -1.07264968      0.02504989
C      -0.08116602      0.50427413     -0.33247744
N       0.88770691     -0.51992497     -0.13183625
C       2.20453335     -0.12396441      0.36236429
C       2.03140322     -0.56834457     -1.04441036
H      -3.32221361      0.86516027     -0.13283922
H      -2.19080744      2.08393393      0.09388940
H      -2.50510029     -1.14667757      0.80444780
H      -1.08729872     -1.71309804      0.13591505
H       0.24213213      1.49255524     -0.65088422
H       2.65450340     -0.78325364      1.09504092
H       2.37395972      0.93385475      0.53509062
H       2.08246419      0.18945212     -1.81880796
H       2.35092619     -1.55736779     -1.35035580
