14
b3lypvtz=-250323.12903188
N      -1.99202529      0.73295630     -0.39775895
C      -1.22142002     -0.26797285      0.08110095
O      -1.59791068     -1.41718082      0.23307023
C       0.21188770      0.13171340      0.42932540
O       0.41718466      1.51981289      0.20042072
C       1.19581502     -0.69874970     -0.38381960
O       2.49635947     -0.22928210     -0.01816960
H      -1.61146849      1.65875185     -0.48893387
H      -2.95004221      0.54071310     -0.63239132
H       0.35608688     -0.10347567      1.49026156
H       1.37262695      1.65589444      0.18785444
H       1.01242214     -0.54009327     -1.45189543
H       1.06129307     -1.75574218     -0.14893963
H       3.14852679     -0.61267638     -0.61019990
