15
b3lypvtz=-214536.35367688
C       1.45875974      1.74208716     -0.14358135
C       0.71326902      0.65693810      0.08786614
C       1.33990705     -0.64248678      0.53109902
N       1.14399892     -1.70693973     -0.46028122
N      -0.67733304      0.70141838     -0.05888924
C      -1.60186061     -0.29956254      0.10385397
O      -2.79250611     -0.11216271     -0.02669812
H       1.02265808      2.68253012     -0.45406612
H       2.52939765      1.70913020     -0.01596815
H       2.39010628     -0.43279692      0.75729672
H       0.87428992     -0.96923539      1.46543876
H       1.52726498     -2.58058677     -0.12068699
H       1.62745398     -1.47945490     -1.32116342
H      -1.08307031      1.58824270     -0.32621203
H      -1.16410854     -1.27450491      0.34145703
