13
b3lypvtz=-242063.28555066
C      -0.14712503      1.48502462      0.61677251
C      -0.16144125      0.29131552      0.02741423
C      -1.06869706     -0.06123384     -1.12617007
O      -1.93380928     -1.14443681     -0.81861390
N       0.57011701     -0.83637754      0.46373778
C       1.75562240     -0.85034049      0.84076964
F       2.57493944      0.22270269      0.89172583
H       0.50426530      1.71281460      1.44747515
H      -0.82195778      2.26059257      0.28315737
H      -1.69869714      0.79106209     -1.37499570
H      -0.45466108     -0.29565056     -2.00670526
H      -1.39111419     -1.83164259     -0.41465545
H       2.27265866     -1.74383026      1.16978788
