11
b3lypvtz=-210565.2898721
C      -0.45863959     -1.43302737      0.08875892
N       0.73523881     -1.06724402     -0.52041350
N       1.48905756     -0.09196742      0.42256581
N       1.00449177      1.01570267      0.48851301
C      -0.20022821      1.43927265     -0.05873551
C      -1.32979301      0.68891122     -0.06201892
N      -1.45008889     -0.63532541      0.26741478
H      -0.56809273     -2.46444542      0.41654473
H       1.36862266     -1.85676338     -0.57320580
H      -0.24868701      2.50573266     -0.22440645
H      -2.27058136      1.19405383     -0.25491708
