15
b3lypvtz=-214514.22124203
C      -2.84606567     -0.13817202     -0.03166893
C      -1.56085261      0.12393479      0.21797844
N      -0.50620083     -0.70303007     -0.12715148
C       0.85295964     -0.43826441     -0.01605498
N       1.60524414     -1.63383108     -0.01064812
C       1.43700900      0.76944260      0.03964922
O       0.73188238      1.95951069     -0.08873543
H      -3.61139755      0.54552558      0.29996401
H      -3.16375478     -1.02832183     -0.56057620
H      -1.26240912      1.02648525      0.72812402
H      -0.72404581     -1.56857371     -0.59606832
H       2.59822032     -1.46823683     -0.08490510
H       1.40691017     -2.22002919      0.79187112
H       2.49134857      0.85025045      0.27754857
H       1.07481015      2.45104578     -0.84190782
