15
b3lypvtz=-193604.0777998
C       1.69672801      0.30668138      0.73804424
C       1.71605426     -0.57689438     -0.49324747
C       0.41468462     -0.04895212      0.04023817
C      -0.44883405      0.91807998     -0.66669986
C      -1.72370215      0.61105161     -0.46438898
C      -1.81540402     -0.60617145      0.40862343
O      -0.45656312     -0.96651649      0.68502692
H       1.86583117     -0.17155164      1.69282387
H       2.06732641      1.32015767      0.65977447
H       1.89809768     -1.63184101     -0.34231324
H       2.10003640     -0.17265128     -1.42047235
H      -0.06322876      1.74003660     -1.25128853
H      -2.58603330      1.13326880     -0.85143914
H      -2.32310350     -1.44351141     -0.08572753
H      -2.34188964     -0.41118624      1.35104599
