20
b3lypvtz=-182671.60969097
C       3.24443850      0.22729866     -0.36776508
C       2.12109084     -0.30685872      0.12031982
N       0.82917388      0.14380823     -0.08455076
C      -0.19216167     -0.07766659      0.93121603
C      -1.62045261     -0.08376161      0.36490075
C      -1.99188559      1.26087965     -0.27044661
C      -1.84858009     -1.24449766     -0.60686751
H       3.24230296      1.13718998     -0.95515678
H       4.19363148     -0.25945209     -0.20635176
H       2.16847082     -1.21645342      0.71046186
H       0.78230142      1.05174457     -0.52296878
H       0.01362619     -1.04728533      1.38974970
H      -0.12926100      0.66991312      1.73542242
H      -2.27655879     -0.23024842      1.22981944
H      -1.82590671      2.09061751      0.42058811
H      -1.40916169      1.44927829     -1.17547559
H      -3.04370760      1.27586294     -0.56009427
H      -1.18696556     -1.16526917     -1.47020318
H      -2.87848817     -1.25373892     -0.96823186
H      -1.65499363     -2.20608504     -0.12689696
