11
b3lypvtz=-259585.24209685
N       1.39255735      1.47474303     -0.50927036
C       1.47299905      0.35641617      0.04865634
O       2.55212759     -0.15301325      0.68958791
O       0.44975763     -0.54086293      0.14751197
N      -0.60131248     -0.30192687     -0.79344183
C      -1.70558964     -0.41588756     -0.18109109
O      -2.84262533     -0.33504164     -0.89314106
H       2.28605235      1.95538582     -0.47274150
H       2.37271160     -1.07294858      0.92333419
H      -1.77820255     -0.58652716      0.89089496
H      -3.59847555     -0.38033704     -0.30039953
