18
b3lypvtz=-181900.40984725
C       1.05832547     -1.47604497     -0.21478988
C       0.44687025     -0.21087927      0.32635286
C       1.11863970      0.94238856      0.43227175
N       2.41293332      1.21851807     -0.01833218
C      -0.98059408     -0.32303612      0.74265430
C      -1.94069703      0.83306148      0.73461042
C      -2.10023520     -0.27171124     -0.27661867
H       2.14953583     -1.44528012     -0.24878692
H       0.77968594     -2.33302623      0.40561638
H       0.70673138     -1.69576638     -1.22841782
H       0.62041529      1.80871600      0.84942171
H       2.90814186      1.89746387      0.53867962
H       2.98855853      0.41149791     -0.20472881
H      -1.14958571     -1.04587038      1.53702423
H      -2.66206898      0.90005593      1.53746394
H      -1.59477841      1.79071165      0.37266590
H      -1.82938300     -0.04669494     -1.29931470
H      -2.93249516     -0.95410383     -0.16924402
