14
b3lypvtz=-226999.92288896
C       0.25092372      1.70951891      0.14222049
C      -0.30743399      0.52325558     -0.10608104
N      -1.65237561      0.30028919     -0.36989469
C      -2.36050209     -0.78130721      0.31347958
O       0.36050410     -0.69802749     -0.20604777
C       1.69206531     -0.87852063     -0.05799827
O       2.53462015     -0.05213143      0.12325070
H      -0.39732067      2.56705929      0.25362215
H       1.31319359      1.84642318      0.20283286
H      -2.16391696      1.16923901     -0.36421895
H      -2.37735338     -0.66705780      1.40444985
H      -1.89851159     -1.73541578      0.07333648
H      -3.38632429     -0.80369844     -0.05052511
H       1.88150571     -1.95610338     -0.14289927
