13
b3lypvtz=-192768.92014482
C      -1.24694471     -0.03820826      0.60134108
C      -0.90675019      0.67229673     -0.69616279
C      -0.63089078     -0.81576135     -0.55045642
C       0.79402749     -0.47320924      0.01497879
C       0.16929431      0.28119635      1.15602450
C       0.51066661      1.00933592     -0.15547019
O       1.97476433     -1.17228868      0.03958408
H      -2.20150700     -0.18243528      1.08532334
H      -1.55247797      1.17481972     -1.40098832
H      -1.03322493     -1.64854055     -1.10806840
H       0.55147752      0.46482303      2.14824562
H       1.18110322      1.84196298     -0.30581453
H       2.39046210     -1.11399137     -0.82853676
