14
b3lypvtz=-227023.35965245
C       1.89042206      1.05583578      0.26103705
C       1.21724900     -0.27518846      0.04678123
N       1.65456486     -1.22095281     -0.67661216
C      -0.08742089     -0.52020933      0.78890548
C      -1.33379063     -0.03568497      0.07497956
O      -2.38303898     -0.61949003      0.05421018
O      -1.16019426      1.16733680     -0.52856740
H       2.77453226      1.15577262     -0.36757322
H       1.20416567      1.87515990      0.04526805
H       2.19369310      1.15685051      1.30695076
H       2.53141303     -0.95914662     -1.12909880
H      -0.07031534     -0.01969034      1.76188669
H      -0.21558528     -1.58622820      0.95155600
H      -2.00629260      1.39318315     -0.94340341
