9
b3lypvtz=-233113.51494981
C      -0.65605388      0.85041628     -0.01571763
C      -1.13017636     -0.53130843     -0.01322632
O      -2.29740016     -0.84544071     -0.02836201
N      -0.10539939     -1.52997580      0.00886089
N       1.11191644     -1.18648588      0.02473198
N       1.42932779      0.11126678      0.02062578
N       0.59994044      1.15555201      0.00100830
H      -1.36880182      1.66515102     -0.03205861
H       2.41664693      0.31082474      0.03413760
