13
b3lypvtz=-237075.32275139
N      -2.68411007     -0.60652387     -0.17854492
C      -1.63791594     -0.13929782     -0.27255700
C      -0.31846633      0.47826463     -0.42155847
N      -0.11032943      1.48173229      0.62929710
C       0.80470865     -0.57688240     -0.27830242
O       0.90849585     -1.03664958      1.02786290
O       1.97326526      0.10287373     -0.70804482
H      -0.26046553      0.88271729     -1.43823325
H      -0.92321037      2.07172245      0.74701058
H       0.67934550      2.06443631      0.37951832
H       0.60684453     -1.44681635     -0.90852752
H       0.74437594     -0.26718394      1.59876874
H       2.72887394     -0.43681574     -0.45087627
