17
b3lypvtz=-194404.23145776
C      -1.92401204     -0.63371583     -0.77519861
C      -1.17446625     -0.19777546      0.48698130
C      -0.69588980      1.27613472      0.40924130
C       0.64564418      1.22429207     -0.33347273
C       1.21072059     -0.16499373     -0.03775672
O       2.31591043     -0.55051773     -0.32193610
C       0.13617291     -0.97918312      0.68035079
H      -2.82444088     -0.03446049     -0.92183308
H      -1.30665632     -0.52869906     -1.67092648
H      -2.22563538     -1.68051464     -0.70869684
H      -1.83728935     -0.33166261      1.34311361
H      -0.54438903      1.66378054      1.41916829
H      -1.42969512      1.92032506     -0.07532491
H       1.35980853      1.99500053     -0.04524166
H       0.52017160      1.30317428     -1.41685790
H       0.11967809     -2.00713081      0.31904815
H       0.42069084     -1.01543569      1.73730358
