14
b3lypvtz=-201260.86460259
C       2.30105769     -0.76762457      0.09235061
C       0.85350971     -1.08870546     -0.04806174
C      -0.19800156     -0.25540893      0.03342398
C      -0.13412414      1.20344338      0.29861311
N       0.66094473      2.04848918     -0.21879732
N      -1.46537244     -0.89597646     -0.08401081
N      -2.44113528     -0.12264010     -0.03773307
H       2.78562775     -1.50563196      0.73535075
H       2.47923218      0.22559757      0.49930696
H       2.80462560     -0.83304054     -0.87769075
H       0.59710277     -2.12907788     -0.21868351
H      -0.86312809      1.57429765      1.01640240
H       1.26225584      1.60553117     -0.91551492
H      -3.28165276     -0.70698604     -0.13165869
