13
b3lypvtz=-213720.28342937
C       2.81535640      0.19109970      0.59617259
C       1.85949785      0.06355782     -0.11715891
C       0.68695357     -0.11461116     -0.96917755
C      -0.62291941     -0.04594399     -0.21669119
N      -0.76357815     -0.83149849      0.89623138
N      -1.53796112      0.68738587     -0.73305648
O      -2.72171434      0.60813432      0.06158752
H       3.66871885      0.31793280      1.21455600
H       0.75505580     -1.08762547     -1.46684117
H       0.65968469      0.64617669     -1.74882830
H      -1.57400395     -0.62967407      1.45977737
H       0.08001645     -1.03250849      1.40815787
H      -3.30490664      1.22767446     -0.38452912
