14
b3lypvtz=-255296.89837006
C      -2.63270294     -0.05137912      0.05781821
O      -1.29030350      0.07714559      0.48623924
C      -0.47228758      0.75040752     -0.44381910
C       0.97764196      0.59435121     -0.01563436
O       1.74093262      1.52740132      0.03450392
C       1.43958709     -0.80559841      0.36523202
F       0.82942618     -1.76825393     -0.42865190
H      -3.09641292      0.92808796     -0.10803631
H      -2.69876285     -0.63521728     -0.86747795
H      -3.17266567     -0.57057043      0.84685543
H      -0.70302394      1.81930692     -0.49941807
H      -0.57924635      0.31666322     -1.44929305
H       1.17532587     -0.99863394      1.40799474
H       2.51942003     -0.87044364      0.23697518
