16
b3lypvtz=-204458.85965846
C       0.57698536      1.67718543      0.08892817
C       0.23170688      0.38284243      0.00467563
N       1.12370589     -0.68280414      0.02928431
C       2.54767575     -0.43465213     -0.05170217
C      -1.23650683      0.02703728     -0.03061121
C      -1.62317852     -1.43469477      0.09318718
O      -2.08653843      0.88166084     -0.14926374
H       1.60338205      2.00747078      0.12727732
H      -0.20404490      2.41869146      0.13641718
H       0.81925364     -1.50374879     -0.46578080
H       2.88311338      0.11165710      0.83201577
H       2.83197216      0.15122768     -0.93555660
H       3.07407240     -1.38703100     -0.07895011
H      -2.70346118     -1.50184749      0.18737890
H      -1.31938820     -1.99045809     -0.79932178
H      -1.13788542     -1.90243859      0.95055396
