13
b3lypvtz=-242056.9032773
C       2.90050616      0.00376438      0.41556711
C       1.76846596     -0.33738887     -0.17746524
O       0.69699761      0.45302680     -0.31117371
C      -0.58260916     -0.11101039     -0.27178776
C      -1.57485600      0.60176735      0.25316742
N      -2.93147996      0.28013401      0.18920872
F       1.62184260     -1.53578422     -0.77679820
H       3.74785626     -0.66044945      0.38315422
H       2.97754972      0.95764542      0.90975585
H      -0.69362631     -1.07044996     -0.75431432
H      -1.35141933      1.55962525      0.70587812
H      -3.45143811      0.53222360      1.01612856
H      -3.12778943     -0.67310392     -0.08010053
