8
b3lypvtz=-222303.77540744
C      -1.44989246     -0.31525359      0.42674849
N      -0.35122365     -0.95611082      0.21145172
C       0.54239590      0.08124081      0.06867318
N       0.02816186      1.27910556      0.18820199
O      -1.31509594      1.01552519      0.42966084
C       1.93162223     -0.11176457     -0.19078397
N       3.05003124     -0.27819376     -0.39989466
H      -2.43599916     -0.71454883      0.59969179
