15
b3lypvtz=-219531.99638261
C      -3.28251239     -0.25772323      0.00086301
C      -1.88477446      0.27391952     -0.00211340
C      -0.78347144     -0.48528416      0.00109954
C       0.57046257     -0.00082702      0.00455214
F       0.71928213      1.36156918      0.00218834
C       1.69289725     -0.73447725      0.00553651
N       2.97845320     -0.22281101     -0.07609713
H      -3.83904565      0.09144978      0.87607334
H      -3.29938192     -1.34847251      0.00458250
H      -3.84017362      0.08550909     -0.87590627
H      -1.77130480      1.35223736     -0.00763826
H      -0.87598167     -1.56712636      0.00302119
H       1.60417909     -1.81133976      0.00726579
H       3.05318393      0.76178652      0.12959070
H       3.68991277     -0.76770916      0.38338999
