15
b3lypvtz=-193588.27093656
C       0.00584626      1.70787601     -0.21228190
C      -0.33657532      0.43241378     -0.08133198
C      -1.77791280      0.00928751     -0.00911108
O      -1.97503972     -0.78375404      1.16490767
C       0.65446710     -0.71414344     -0.01449076
C       2.05958469     -0.34975907     -0.12689284
C       3.21929543     -0.05808294     -0.21877070
H      -0.74568491      2.48648487     -0.23524348
H       1.03976902      2.01064203     -0.30371586
H      -2.02708661     -0.57781341     -0.90417069
H      -2.41982349      0.89535546      0.00200840
H      -2.84059580     -1.19846012      1.11356891
H       0.48920077     -1.24953052      0.92490545
H       0.40766083     -1.43697481     -0.80189537
H       4.24689456      0.19455869     -0.29748575
