14
b3lypvtz=-224559.45900818
C      -1.81305363     -0.56374735      1.16793683
C      -0.58998209     -1.15284176      0.45045302
C       0.14211327     -0.13595929     -0.37871336
N       0.08364751     -0.11507084     -1.64099789
N       0.80368657      0.86549983      0.42451935
N       1.96868417      1.05013589      0.10790887
O       2.51318949      2.06862710      0.88358629
H      -2.53312187     -0.17715763      0.44604851
H      -1.52695358      0.24917086      1.83422840
H      -2.30756195     -1.33339896      1.76112232
H      -0.88936898     -1.95644158     -0.22033819
H       0.10086369     -1.56745326      1.18984794
H       0.62259387      0.66150749     -2.02486201
H       3.42526354      2.10712949      0.56782105
