17
b3lypvtz=-217698.29956221
C       1.79619978     -0.95510005      0.67355836
C       0.95406405     -0.00973931     -0.14433524
O       1.28550974      0.36412445     -1.24695653
C      -0.37459466      0.45730292      0.46785976
C      -0.49893352      1.98198855      0.39044526
C      -1.52186001     -0.22109804     -0.27762563
O      -1.41141613     -1.63052073     -0.07662139
H       2.70654827     -1.21384156      0.13833579
H       1.21147823     -1.85345134      0.88449690
H       2.04528744     -0.50323549      1.63724516
H      -0.42250271      0.13278270      1.51009394
H      -0.40264890      2.31940868     -0.64110054
H      -1.46298563      2.31219136      0.78027148
H       0.28209447      2.46958551      0.97488525
H      -2.47741669      0.15179333      0.10887678
H      -1.45357280      0.03187220     -1.34058230
H      -2.01363194     -2.07941318     -0.67575604
