16
b3lypvtz=-204438.750402
O       2.36932991      1.23048087      0.67380236
C       2.34832533      0.33871982     -0.13644213
C       1.15101285     -0.52026582     -0.44477362
C      -0.10305419     -0.16858245      0.33658886
C      -0.84549779      1.09344702     -0.17160328
N      -1.74905223      0.21152870     -0.95050829
C      -1.36563147     -0.94798628     -0.11213584
H       3.25966626      0.09113300     -0.72179501
H       0.96928529     -0.46338277     -1.52518603
H       1.45373845     -1.56041402     -0.26356226
H       0.10551733     -0.18079930      1.40382448
H      -1.33283780      1.63537126      0.64549455
H      -0.27494513      1.80495403     -0.77110934
H      -2.72986285      0.46059200     -0.93700218
H      -2.04344536     -1.14733223      0.72554242
H      -1.21254862     -1.87746382     -0.66693466
