16
b3lypvtz=-181115.44851369
C      -2.68584538     -0.60006601      1.18995072
C      -1.99216113      0.13819371      0.54039836
C      -1.21661029      1.05546720     -0.21866470
C      -0.03890517      0.78928310     -0.79615813
C       0.68669912     -0.52173555     -0.77701091
N       2.11940743     -0.33166753     -0.55223397
C       2.46612857     -0.03900502      0.83394988
H      -3.29121940     -1.25898063      1.76036914
H      -1.64159041      2.04725678     -0.33048368
H       0.45676064      1.58051539     -1.34760235
H       0.21816712     -1.19543816     -0.04515118
H       0.57075905     -0.98910438     -1.76090444
H       2.61765162     -1.15549554     -0.86141723
H       3.54950689      0.03564289      0.92895255
H       2.10458916     -0.79164003      1.55147045
H       2.04184517      0.92275479      1.12570248
