17
b3lypvtz=-194359.74451246
C      -2.33183993     -0.67986155     -0.08710090
C      -1.42890156      0.11587317      0.47180470
C      -0.01233758      0.32873446      0.03273873
C       0.19663696      1.77575390     -0.42428817
C       0.64493603     -0.70213454     -0.91513718
O       1.75196214     -0.89629057     -0.00580554
C       1.08612847     -0.14102290      1.02819173
H      -3.33886664     -0.74519526      0.30291606
H      -2.10866012     -1.29237649     -0.95159951
H      -1.72435776      0.71168287      1.33317198
H      -0.07221297      2.47777643      0.36817156
H      -0.42275633      1.99940281     -1.29467875
H       1.24096906      1.94810430     -0.68990786
H       0.97490761     -0.32396006     -1.88515596
H       0.08303022     -1.62830822     -1.05756599
H       0.72213213     -0.78961950      1.83029865
H       1.72833726      0.63728617      1.44774346
