16
b3lypvtz=-204409.5565152
C       1.97372475      0.34008213     -0.19067958
N       0.89748979     -0.60338898     -0.45802002
C       0.31127688     -1.28675484      0.69684882
C      -0.43850810     -0.24784912     -0.03999422
C      -1.68008301     -0.32956693     -0.91421432
O      -2.15601086      0.93235358     -0.37663579
C      -0.98082648      1.09378837      0.45201542
H       2.02259000      1.07353296     -0.99643980
H       2.92003503     -0.20099811     -0.16804155
H       1.86289471      0.87767973      0.76167346
H       0.68155223     -1.02204843      1.68428488
H       0.08155857     -2.33731097      0.56140488
H      -1.48619422     -0.27431933     -1.98849848
H      -2.37340711     -1.14741308     -0.70220836
H      -1.23712568      1.15691981      1.51266177
H      -0.39916651      1.97519321      0.16584289
