11
b3lypvtz=-215381.31649997
C      -1.17897930     -0.59198813     -0.53846582
C      -2.12312100      0.50058175     -0.04870745
O      -1.78571738      1.54327242      0.43382664
C       0.23402553     -0.30924672     -0.38951216
C       1.41003414     -0.08300914     -0.26953957
C       2.80368814      0.24621252     -0.09945683
O       3.71739576     -0.47849833     -0.41671379
H      -1.42338047     -0.78945498     -1.58951567
H      -1.44458052     -1.51603751     -0.01027484
H      -3.19316883      0.24134427     -0.18077975
H       2.98380393      1.23682386      0.35471360
