11
b3lypvtz=-192056.8158803
C       3.70842305      0.09031483      0.31669443
C       2.52790638     -0.02629565      0.10483877
C       1.19217958     -0.15707201     -0.13421602
C       0.01181128     -0.28126363     -0.35561302
C      -1.41712116     -0.39999734     -0.57711013
C      -2.24329740      0.48089905      0.36285444
O      -3.30180449      0.14314388      0.81337347
H       4.74831331      0.19220035      0.50362329
H      -1.76216628     -1.43032543     -0.47191246
H      -1.66260863     -0.08244321     -1.59905355
H      -1.80153565      1.47083915      0.58642076
