12
b3lypvtz=-202943.91151502
C      -0.29104546      1.92540468      0.00000308
C      -0.30241704      0.58920733     -0.00001871
C      -1.53274589     -0.13936821     -0.00002812
N      -2.50774212     -0.75491506     -0.00000752
C       1.01164611     -0.17865210     -0.00002307
C       0.93974307     -1.68146700     -0.00001145
O       2.05569412      0.42920938     -0.00000705
H       0.66056781      2.43945917      0.00000605
H      -1.20224783      2.50561670      0.00000030
H       1.94536168     -2.09172095     -0.00001076
H       0.39011666     -2.03619637      0.87479210
H       0.39010488     -2.03622156     -0.87479685
