14
b3lypvtz=-250311.75990936
C       1.62725805      1.04519409      0.72868615
C       1.11159734      0.04102743     -0.28378294
O       1.99716461     -0.99937111     -0.53020220
O      -0.12213275     -0.54448919      0.19738852
C      -1.31344911      0.06080745     -0.07426977
N      -1.57448378      1.15353935     -0.64422436
O      -2.31293174     -0.71342776      0.38740214
H       0.90179717      1.84086738      0.89555122
H       1.80922169      0.54759241      1.68385261
H       2.55908748      1.48486281      0.37456277
H       0.91552320      0.49781578     -1.25433218
H       2.29789604     -1.36249442      0.31088070
H      -0.75128156      1.66655310     -0.92998106
H      -1.92772764     -1.52382431      0.74099540
