20
b3lypvtz=-182675.72204293
C      -3.36458400      0.00111158     -0.38106762
C      -2.14415893     -0.00098290      0.52826634
N      -0.90686163     -0.00101521     -0.25889543
C       0.19563614     -0.00053787      0.35317858
C       1.52304379     -0.00034239     -0.35486632
C       2.31576105     -1.26709630     -0.00179830
C       2.31451260      1.26739503     -0.00255819
H      -3.36310186      0.88294064     -1.02278366
H      -3.36441117     -0.87907110     -1.02503427
H      -4.28630451      0.00106999      0.20361954
H      -2.16519092      0.87781101      1.18203626
H      -2.16646528     -0.88152567      1.17962124
H       0.25074286     -0.00020422      1.45569112
H       1.30640326     -0.00074947     -1.42472370
H       3.27845250     -1.27295361     -0.51597437
H       1.77175153     -2.16735580     -0.29072957
H       2.51367341     -1.32213712      1.07183411
H       1.76945142      2.16688385     -0.29192563
H       2.51241914      1.32320794      1.07103817
H       3.27716862      1.27400961     -0.51678929
