17
b3lypvtz=-217679.05860944
C      -2.45721983     -0.33695619     -0.59194697
C      -1.67883464     -0.74511580      0.40661913
O      -0.38711881     -0.42860534      0.67450258
C       0.32264999      0.47141424     -0.20280589
C       0.01148430      1.92218841      0.13351680
C       1.79335506      0.13067109     -0.00801704
O       2.09358011     -1.20354880     -0.37269074
H      -2.14432553      0.35347029     -1.35967658
H      -3.46583840     -0.71729799     -0.64652020
H      -2.04517697     -1.43329973      1.15859172
H       0.04707400      0.23582097     -1.23393385
H      -1.05442728      2.12730062      0.05248509
H       0.32663836      2.15271225      1.15218896
H       0.53836896      2.58971313     -0.55035715
H       2.39974819      0.77418336     -0.64631453
H       2.06939343      0.33063769      1.03509487
H       1.51330305     -1.77433720      0.14307480
