14
b3lypvtz=-203664.90814099
O       2.72465980     -0.20838288      0.74015170
C       1.77320830      0.53487875      0.62171928
C       0.39869414      0.07195228      0.42727234
C      -0.90631112      0.86342849      0.32896572
C      -1.37278027     -0.08849196     -0.82270421
C      -0.05583561     -0.85313918     -0.69298657
N       0.04691635     -1.34282534      0.66785020
H       1.90380862      1.63493551      0.63535985
H      -1.50953448      0.86641367      1.23536436
H      -0.75370513      1.88510843     -0.01631463
H      -1.47553872      0.42740468     -1.77517881
H      -2.26280194     -0.68588712     -0.62932905
H       0.55845863     -1.26263075     -1.48286742
H       0.93096143     -1.84276459      0.76259723
