16
b3lypvtz=-181116.95549024
C       1.92938999      1.81720497      0.05468850
C       1.33512453      0.79069413     -0.13435749
C       0.64589620     -0.49243357     -0.34203952
N       1.49134199     -1.66295232     -0.05889952
C      -0.64703597     -0.59414017      0.49762185
C      -1.66304702      0.46270016      0.18686679
C      -2.89096604      0.22051497     -0.25446635
H       2.45413201      2.72559982      0.21621816
H       0.35961788     -0.55483501     -1.39547508
H       1.82235526     -1.61709517      0.89956423
H       2.31862511     -1.63781909     -0.64444436
H      -1.06263000     -1.58782121      0.32771004
H      -0.36306720     -0.53340320      1.55439365
H      -1.34702195      1.49006089      0.33959756
H      -3.58739187      1.02274007     -0.46062751
H      -3.24709690     -0.78989325     -0.42034392
