12
b3lypvtz=-249573.5725735
C       2.16619430     -0.67771774      0.06156925
N       1.38578242      0.55597063      0.03583376
C       0.04695119      0.77021659      0.01426974
O      -0.44650389      1.88036697     -0.00585463
C      -0.85001800     -0.48581505      0.01632302
O      -0.45752914     -1.62547858      0.03522382
O      -2.14258732     -0.14460789     -0.00595711
H       3.21709181     -0.39459533      0.07287074
H       1.95406861     -1.27362793      0.94695820
H       1.97871428     -1.29480450     -0.81483123
H       1.89881651      1.42386108      0.03282972
H      -2.64863677     -0.97126125     -0.00347528
