12
b3lypvtz=-252151.24273107
C       1.23192458     -1.07154780     -0.01539048
C       0.69522237      0.10402181     -0.36444770
N       1.39800228      1.15864837     -0.94703831
N      -0.65603947      0.45580316     -0.16553683
C      -1.62561660     -0.24921357     -0.52065657
O      -2.90535824      0.05694895     -0.30751916
F      -1.57169415     -1.40517854     -1.17177850
H       2.29381630     -1.24507695     -0.11456006
H       0.62214888     -1.87241043      0.36857440
H       2.39900141      1.10138782     -0.84184615
H       1.03719402      2.06580707     -0.69248677
H      -2.91860138      0.90081013      0.16329892
