17
b3lypvtz=-217677.80776971
C      -3.63744935     -0.46891970      0.04524223
C      -2.31296895      0.15562261      0.35427823
C      -1.23823194      0.10265765     -0.42391145
C       0.06346738      0.76327173     -0.10822694
O       1.09985844     -0.21291033     -0.13227800
C       2.38210827      0.33963293      0.07239247
O       3.32804425     -0.67924451      0.07421366
H      -3.92588954     -1.18068486      0.82360752
H      -4.42847357      0.28513722      0.00402027
H      -3.62009771     -0.99556822     -0.90908170
H      -2.24652393      0.69460865      1.29659861
H      -1.27234751     -0.43961329     -1.36437344
H       0.01807991      1.25404777      0.87309830
H       0.28280730      1.54158214     -0.85483864
H       2.65226036      1.01342403     -0.74889380
H       2.38485950      0.90707921      1.01767701
H       3.10107308     -1.29703205      0.77794967
