17
b3lypvtz=-191976.76757152
C       2.61527554      0.30858383      0.24720753
C       1.45651379      0.42878065     -0.39100609
C       0.26918280     -0.42970634     -0.11877330
N       0.33327845     -1.69412689      0.09829618
N      -0.96231066      0.19392663     -0.19042299
C      -1.12614762      1.58093080      0.21130061
C      -2.14371443     -0.63242246     -0.00324333
H       2.74586443     -0.40297212      1.05323238
H       3.46800328      0.92117339     -0.01247369
H       1.35291018      1.17015342     -1.17598173
H       1.28887273     -2.01850177     -0.01122981
H      -0.22821157      2.15667021      0.00581873
H      -1.95422949      2.02777259     -0.34141096
H      -1.34525752      1.67370143      1.28343492
H      -2.32105618     -0.86807011      1.05292688
H      -2.01799155     -1.57161055     -0.53333800
H      -3.01033117     -0.09715270     -0.39297333
