15
b3lypvtz=-214522.84405679
C       1.61713968      1.41852110      0.37985202
C       1.15791523      0.21612432     -0.00415104
N       2.01104866     -0.83315190     -0.38807707
C      -0.27045039     -0.14232791      0.03395612
N      -0.70008488     -1.44311389      0.47622497
C      -1.24315890      0.71915854     -0.30382972
O      -2.55776057      0.43063195     -0.18069396
H       2.65900423      1.68821056      0.26279915
H       0.96342705      2.13678801      0.84810751
H       1.69317402     -1.35845013     -1.19045381
H       2.97490331     -0.55375753     -0.49533925
H      -0.07590802     -1.81939490      1.17794588
H      -0.74437641     -2.11706598     -0.27997534
H      -1.04811582      1.69954228     -0.71115720
H      -2.59120819     -0.42629652      0.28087371
