16
b3lypvtz=-181086.96648618
C      -0.96598945     -1.23895397      0.23813306
C      -0.42660481      0.01541419      0.98820133
C      -1.41133415      0.85730779      0.11676156
C      -0.76458577     -0.16239442     -0.86978567
C       0.56856248      0.15883185     -0.17473044
C       1.96750703     -0.22696819     -0.37358447
N       1.51739333      1.19610118     -0.50360346
H      -0.31415930     -2.11140674      0.20463651
H      -1.99883132     -1.51130905      0.45295282
H      -0.22864414      0.11636766      2.05445989
H      -1.16283799      1.90645080     -0.03488497
H      -2.47200151      0.71624302      0.32476411
H      -0.94954377     -0.26191538     -1.93687441
H       2.55797965     -0.49785626      0.49466724
H       2.29464715     -0.67863337     -1.30235017
H       1.78844255      1.72272087      0.32123705
