13
b3lypvtz=-190453.82262305
C      -2.53135156     -0.27274596      0.00016877
N      -1.63932620      0.63358572     -0.00004949
C      -0.29336715      0.28707828     -0.00002449
C       0.71802485      1.18169202      0.00008274
C       1.95585572      0.41312321      0.00006478
N       1.78761152     -0.86275536     -0.00006174
C       0.34246236     -1.08510804     -0.00012769
H      -2.31979332     -1.34584497      0.00035262
H      -3.57620548      0.02378574      0.00006527
H       0.61831526      2.25585923      0.00016280
H       2.95170302      0.84302803      0.00014654
H       0.07275167     -1.68094631      0.87688570
H       0.07279730     -1.68078360     -0.87726582
