12
b3lypvtz=-249535.85421522
C       0.32615906      1.68811362     -0.01857898
C       0.11323337      0.20797811      0.07861363
N       0.79608707     -0.40055627      0.97063728
O       0.57483149     -1.79164388      1.03912535
C      -0.89514564     -0.37068982     -0.90661130
O      -1.45077167      0.35809108     -1.68457633
O      -1.13681286     -1.68552289     -0.87904045
H       0.66696663      1.95360882     -1.01965345
H      -0.61545951      2.21416361      0.14095632
H       1.05819559      2.00814924      0.71841853
H       1.16038164     -2.07344164      1.74852583
H      -0.59766517     -2.10814998     -0.18781643
