15
b3lypvtz=-216939.89303024
C       2.70172439     -0.08131531      0.02919672
C       1.32410020     -0.64220569     -0.32365876
C       0.19447982      0.02553141      0.45168305
C      -0.28443708      1.42549270      0.02861495
O      -1.62016431      0.88798488     -0.26622302
C      -1.23026963     -0.38361423      0.07755315
O      -1.87696628     -1.37898048      0.03653649
H       3.48460309     -0.58157442     -0.54172211
H       2.92309067     -0.21909762      1.08952540
H       2.76791685      0.98697900     -0.18740572
H       1.13877661     -0.53184192     -1.39587220
H       1.29323550     -1.71393963     -0.11619945
H       0.35979308     -0.06434837      1.52695092
H       0.16836415      1.82851830     -0.87586065
H      -0.34174305      2.18479838      0.80517421
