16
b3lypvtz=-204442.78257708
N       2.64120675      0.56531044      1.06551256
C       2.33290568      0.82000932     -0.14219669
C       1.39065269      0.11425640     -1.02817923
C       0.19993358     -0.40363183     -0.70708500
C      -0.50583910     -0.36673767      0.61299971
C      -1.97524488      0.06193842      0.49500048
O      -2.76179321     -0.84867006     -0.26790617
H       2.14775872     -0.26513699      1.39704850
H       2.84972927      1.66399941     -0.60715897
H       1.70345339      0.06113422     -2.06692503
H      -0.34912990     -0.89774254     -1.50330092
H      -0.00361313      0.30566276      1.31085228
H      -0.49327997     -1.36698557      1.05999138
H      -2.41647311      0.08359603      1.49227946
H      -2.04009260      1.07452409      0.08402807
H      -2.72017418     -0.60152643     -1.19486042
