17
b3lypvtz=-191971.29342359
C       3.26412421     -0.79397263     -0.01920428
C       2.35774362      0.18578460     -0.08091136
N       0.99636219      0.04404223      0.06882591
C       0.07094853      1.05462134     -0.07095037
C      -1.25093836      0.88353410      0.05759766
N      -1.79626458     -0.39623301      0.37257852
C      -3.02436133     -0.72510810     -0.34518163
H       4.31173703     -0.57020423     -0.14267680
H       2.98642498     -1.82570909      0.15360439
H       2.66888782      1.20933413     -0.25702448
H       0.60857316     -0.87690729      0.21378469
H       0.48033529      2.03228645     -0.28796265
H      -1.91978288      1.72836181     -0.08513933
H      -1.94435378     -0.49089803      1.37121187
H      -3.81685420      0.02866064     -0.22835496
H      -3.40779498     -1.68262068      0.00859158
H      -2.80953974     -0.81994523     -1.41006577
