10
b3lypvtz=-222967.02281343442
C       3.18284637     -0.68471360      0.28488445
C       2.00547414     -0.49574873      0.14096159
C       0.60503323     -0.27598475      0.05758407
N       0.07772309     -0.12324457     -1.09946973
O      -1.28309520      0.09168978     -1.20350082
N      -2.00685886      0.13292349      0.03025041
N      -3.17719445      0.32757251     -0.24276282
H       4.22575665     -0.85098186      0.39372286
H       0.04026371     -0.24677724      0.98126975
H      -3.66994868      0.35283594      0.65706025
