19
b3lypvtz=-195138.8197193
C       3.07790219     -0.21495710     -0.15424338
C       1.69777226     -0.04184693      0.40007318
C       0.61702494      0.27274755     -0.30560011
C      -0.76034690      0.46881392      0.26629453
C      -1.29348569      1.87251412      0.00878325
O      -1.70573870     -0.42882007     -0.32469412
C      -1.54984957     -1.77944404      0.05985938
H       3.46699950     -1.21383189      0.06184429
H       3.77579328      0.49496118      0.29860168
H       3.09730601     -0.06779288     -1.23436697
H       1.59320061     -0.18239576      1.47384459
H       0.69450805      0.41203969     -1.38174709
H      -0.72453730      0.28474041      1.34962551
H      -2.29806070      1.97336287      0.41995641
H      -1.34160544      2.06662362     -1.06378452
H      -0.64522966      2.61909919      0.46776420
H      -2.34282203     -2.34245127     -0.42978078
H      -1.64915178     -1.89975641      1.14651939
H      -0.58142110     -2.18900222     -0.24548144
