15
b3lypvtz=-237811.4667909
C      -2.50695385     -0.28477380      0.43265223
C      -1.13717989      0.35679959      0.42894754
O      -0.25261563     -0.52026505     -0.29423428
C       1.03285129     -0.13931245     -0.41139637
N       1.77513052     -1.01202746     -1.16088902
N       1.44260465      0.95722236      0.11334836
O       2.84805725      1.09676691     -0.15084524
H      -2.48226649     -1.25703862      0.92562870
H      -2.87656380     -0.42250696     -0.58372298
H      -3.21015344      0.35347352      0.96960676
H      -1.14445616      1.33172329     -0.06078304
H      -0.74933880      0.49734744      1.43903451
H       1.43408217     -1.95840072     -1.18510524
H       2.77040592     -0.90263777     -1.05256133
H       3.05629627      1.90372973      0.32611940
