15
b3lypvtz=-193586.35066344
C      -1.28461529      0.42728329      0.83894105
C      -0.67509287     -0.46350973     -0.21115106
C      -0.13856136      0.09225456     -1.47910290
C       0.83707615     -0.48071995     -0.44885993
C       1.73606012      0.36867934      0.27118368
C       2.49195257      1.07734013      0.88028062
O      -1.32328747     -1.70148072     -0.37378519
H      -1.24694113     -0.05159384      1.82120403
H      -2.32925280      0.62466722      0.59385781
H      -0.75429816      1.37501843      0.91457472
H      -0.28639601     -0.49103696     -2.37645381
H      -0.14172024      1.16491639     -1.61000139
H       1.22582687     -1.46086399     -0.69553494
H       3.16362375      1.70116524      1.41453415
H      -1.27437411     -2.18211938      0.46031317
