15
b3lypvtz=-240247.60711259
C      -2.51547634     -0.30224613      0.64287105
C      -1.65645293     -0.40530083     -0.60172801
O      -0.25198994     -0.54955996     -0.26293642
C       0.45765009      0.58091566     -0.07764750
O       0.00898965      1.69442766     -0.16562358
C       1.89548298      0.27910538      0.30841020
O       2.34387288     -1.02752353      0.02952859
H      -3.56868911     -0.26957669      0.35802237
H      -2.28573314      0.60558839      1.19909451
H      -2.36556388     -1.16466783      1.29310547
H      -1.88766275     -1.30010797     -1.17619638
H      -1.76738755      0.47237197     -1.23532789
H       2.53011157      0.98245867     -0.23011454
H       1.98074183      0.52161639      1.37702227
H       1.59489064     -1.62542417      0.12282487
