13
b3lypvtz=-237046.44571922
N      -2.44718093     -0.43869317      0.24032043
C      -1.20163867      0.09862627     -0.07275587
O      -1.27414897      1.35815545     -0.58795618
C      -0.01655816     -0.50630421      0.13140333
C       1.25199658      0.15781474     -0.01049982
N       2.34275133     -0.48666629      0.16620349
O       3.45628865      0.36340320     -0.01240327
H      -2.40232935     -1.36031086      0.64857591
H      -3.11042002     -0.40845190     -0.52436454
H      -2.05989112      1.78818950     -0.22769844
H      -0.00823626     -1.54865762      0.41794657
H       1.27275229      1.21431253     -0.26935834
H       4.19651464     -0.23121764      0.14108674
