11
b3lypvtz=-269607.0850799
O      -1.20927744      1.51224855     -0.19890587
C      -0.56522149      0.34132967      0.08198623
C       0.87319619      0.48664174      0.28069818
C       1.75614149     -0.34611422     -0.25129627
F       3.07086075     -0.22804003     -0.00627087
C      -1.20696202     -0.82289408      0.19211666
F      -2.54848175     -0.86321119     -0.04367696
H      -2.15829493      1.33752684     -0.24229481
H       1.21548079      1.32684113      0.87327589
H       1.52884283     -1.17107172     -0.91241905
H      -0.78011341     -1.76512269      0.48835886
