18
b3lypvtz=-181914.30987863
C       2.96133281     -0.33696569      0.53502198
C       1.93917053      0.19742636     -0.47981489
C       0.60442354     -0.46562498     -0.34623063
C      -0.59607192      0.08275857     -0.10212471
C      -0.85884018      1.55040042      0.08674672
C      -1.75062003     -0.83171579     -0.01674473
N      -2.97338842     -0.55156307      0.19486261
H       3.93728860      0.12584486      0.38263503
H       2.64289471     -0.12958126      1.55753630
H       3.08471502     -1.41714946      0.43802603
H       1.85703212      1.27965202     -0.38305175
H       2.31993805      0.00690200     -1.48967525
H       0.62880507     -1.54783422     -0.45684209
H      -1.54681883      1.92448808     -0.67617872
H       0.04897711      2.14504065      0.03357369
H      -1.32552492      1.74005960      1.05686890
H      -1.50553087     -1.88734127     -0.15675864
H      -3.10955238      0.45372217      0.31285915
