13
b3lypvtz=-190459.29530887
N       3.28097555     -0.37267192     -0.66506935
C       2.32008162     -0.26542063     -0.04242473
C       1.09599189     -0.11128309      0.74478581
C       0.16828003      0.91864076      0.14696397
C      -1.12574458      0.75904570     -0.14165937
C      -1.92619123     -0.45377413      0.03319569
N      -3.16554797     -0.57904768     -0.22626179
H       1.38968377      0.20292491      1.75196399
H       0.62319445     -1.08686226      0.84529910
H       0.62655435      1.88156476     -0.04571868
H      -1.66155722      1.61067481     -0.55015191
H      -1.42201996     -1.33916311      0.42042462
H      -3.55366171      0.29765488     -0.58363733
