18
b3lypvtz=-205236.1351493
C       2.23176981     -0.63978417     -0.58072998
C       1.29476711     -0.33803407      0.59138621
N       0.11049397      0.43066412      0.22449409
C       0.28518670      1.86950618      0.08772250
C      -1.11894267     -0.11704949     -0.03922485
C      -1.26475592     -1.62354667      0.11069476
O      -2.07711768      0.56417687     -0.37367497
H       3.11001335     -1.18579465     -0.23128463
H       2.57818372      0.27592546     -1.06049961
H       1.73263458     -1.24714774     -1.33663525
H       0.98853526     -1.26646194      1.06750427
H       1.83460388      0.23284230      1.35181632
H      -0.67189145      2.30766042     -0.17484058
H       0.63740576      2.29965723      1.02907270
H       1.01137084      2.10873559     -0.69297010
H      -0.54129892     -2.17370250     -0.49206052
H      -1.13897909     -1.93441123      1.14953263
H      -2.26859324     -1.88255870     -0.21154199
