12
b3lypvtz=-200508.85931986
N       3.22699821     -0.44084500     -0.60423911
C       2.25615972     -0.27830975     -0.00922592
C       1.02150714     -0.05742070      0.74296810
C       0.12953656      0.96045847      0.08157963
C      -1.15753258      0.76696585     -0.20972572
N      -1.78317318     -0.46130305      0.07489867
N      -2.98892116     -0.47866227     -0.23974793
H       0.49359014     -1.00233255      0.86262369
H       1.30066193      0.29201501      1.74249180
H       0.57846525      1.91551063     -0.16001384
H      -1.77000664      1.53514037     -0.67167956
H      -3.34520738     -1.41288500      0.00266519
