18
b3lypvtz=-205207.41897291
C      -0.16070794      1.58551603     -0.50518104
C      -0.27229712      0.20599240      0.08226660
C       0.71015325     -0.69531748      0.14118090
C       2.11707579     -0.56541133     -0.34648711
O       2.98597929     -1.04236417      0.68764816
C      -1.63661275     -0.14305936      0.63254869
N      -2.65510958     -0.12697964     -0.42980771
H      -0.39717961      2.33776804      0.25371265
H      -0.89427254      1.71025019     -1.30299749
H       0.82689346      1.80488159     -0.90372464
H       0.49976902     -1.66066248      0.59271435
H       2.24576317     -1.17458374     -1.25224730
H       2.35940033      0.46801647     -0.60771655
H       3.87848871     -1.09122737      0.33366405
H      -1.92730911      0.61810409      1.36386094
H      -1.57430673     -1.09737890      1.16925921
H      -3.58259974     -0.21317397     -0.03222879
H      -2.52312788     -0.92037038     -1.04669835
