15
b3lypvtz=-214508.93944459
N       3.23534948      0.76491870      0.06851803
C       1.96444484      0.80214535      0.03375474
N       1.05956006     -0.18426890      0.35843079
C      -0.33055969      0.08550911      0.56842239
C      -1.18518034      0.51271791     -0.60723339
C      -1.33981428     -0.85441081     -0.00550352
O      -2.44205138     -1.14171041      0.80842446
H       3.58016937     -0.12883315      0.42433720
H       1.48080331      1.70999210     -0.32594324
H       1.43365595     -0.99875142      0.82339179
H      -0.61285234      0.51485668      1.52547222
H      -1.95903095      1.23928953     -0.40357459
H      -0.71270630      0.59064732     -1.57606062
H      -0.94930618     -1.69195897     -0.57529206
H      -3.22258156     -1.22014303      0.25055579
