16
b3lypvtz=-204424.14894053
N      -2.17655197      0.39068049      0.29064233
C      -1.07464458     -0.27940917     -0.37737915
C      -0.13001612     -1.14023256      0.52313978
C       1.06420721     -0.37434230     -0.05032220
O       2.25504382     -0.97107382     -0.44803694
C       0.94823770      1.08904870      0.23488833
C       0.15728179      0.48448608     -0.90643446
H      -2.71115918      0.94403188     -0.36938748
H      -1.83665033      1.02944652      1.00112152
H      -1.49754053     -0.89596497     -1.17022358
H      -0.13108009     -2.19185907      0.24239117
H      -0.28917439     -1.05549062      1.60045862
H       2.85837769     -0.98669002      0.30275921
H       0.45934938      1.45547952      1.13285341
H       1.79804404      1.67782397     -0.08416202
H       0.30617554      0.82406538     -1.92240855
