10
b3lypvtz=-246350.42198687277
C      -1.19047499     -0.19841740      0.48917405
N      -1.88159470      0.89496125      0.54847039
N      -2.48751833      1.85463818      0.58288028
O       0.13403538     -0.13221735      0.87362754
C       1.07243664     -0.22098096     -0.12733015
N       0.92020300     -0.28342548     -1.37380689
O       2.26781637     -0.23640815      0.47429030
H      -1.70188429     -1.14186007      0.40974970
H      -0.05732810     -0.24553947     -1.64477086
H       2.92430903     -0.29075055     -0.23228435
