15
b3lypvtz=-191217.95737525
C       2.83558713     -0.53659145      0.38209409
C       1.65516964     -0.71806348     -0.20103098
C       0.57095118      0.29335251     -0.23786204
N       0.69489203      1.56131950     -0.18674796
N      -0.70214696     -0.28561589     -0.42091905
C      -1.66421576      0.11174634      0.30148309
C      -3.05793842     -0.38427287      0.11885028
H       3.58646020     -1.31468813      0.38452897
H       3.09024250      0.38774186      0.88710200
H       1.41107223     -1.66867284     -0.65962655
H       1.67799618      1.82504883     -0.13951949
H      -1.49576763      0.85228897      1.09085843
H      -3.72663432      0.45620119     -0.08746350
H      -3.11186640     -1.09983250     -0.69870691
H      -3.42001560     -0.85139703      1.03886861
