17
b3lypvtz=-191978.99640359
C      -3.63194456     -0.33089932      0.02971693
N      -2.42165000      0.45741316      0.06752915
C      -1.30835895     -0.15208612     -0.03306275
C      -0.03322549      0.52004818     -0.00324328
C       1.13059896     -0.15304265     -0.11289830
N       2.38487058      0.38778636     -0.16394132
C       3.56429109     -0.39987598      0.13925561
H      -3.45416882     -1.41104846     -0.08218853
H      -4.26368390      0.00298238     -0.79811003
H      -4.20686393     -0.16827621      0.94558576
H      -1.27145729     -1.24845809     -0.14632519
H      -0.04762890      1.59860720      0.10630741
H       1.11471380     -1.23439351     -0.21119380
H       2.44819234      1.37087040      0.04844581
H       3.69186972     -0.59832420      1.21027226
H       4.45176889      0.11761414     -0.22286210
H       3.50505946     -1.35750628     -0.37869966
