13
b3lypvtz=-213725.24003258
C       2.87555814     -0.38570283      0.01143823
C       1.58734799     -0.70611642      0.01307646
C       0.47448961      0.27369043      0.04180099
N       0.49596213      1.53272278      0.06920135
O      -0.70015904     -0.44857376      0.03362630
N      -1.87172287      0.33468376      0.05899190
C      -2.88754118     -0.41950010      0.04846434
H       3.21818055      0.64178933      0.03140581
H       3.63989799     -1.14965002     -0.01018417
H       1.28512780     -1.74563783     -0.00749076
H       1.45287592      1.87426924      0.07047197
H      -2.83008346     -1.50505897      0.02336663
H      -3.84890558      0.07687140      0.06605395
