13
b3lypvtz=-237055.27955286
C       0.59842319      1.84044121      0.00003385
N       0.66075679      0.38552447      0.00000212
C       1.87044178     -0.27893201     -0.00002622
O       2.00768610     -1.47924994     -0.00003251
C      -0.51665465     -0.34781098     -0.00002133
N      -1.63804318      0.25380878      0.00000268
O      -2.69249022     -0.67755047     -0.00001647
H       1.61261482      2.23371867      0.00004183
H       0.06910091      2.19907588      0.88251880
H       0.06909897      2.19911672     -0.88243346
H       2.71911967      0.42369002      0.00005698
H      -0.39772262     -1.42469908     -0.00004641
H      -3.47059057     -0.11178127      0.00001114
