17
b3lypvtz=-191968.15063025
C      -0.03071258     -1.09401601      1.12492802
N      -0.18205657      0.24047575      0.58255207
C       1.01292808      0.90066103      0.08348080
C       1.55455269      0.28451142     -1.18467322
N       2.76364626     -0.07812847     -1.27390260
C      -1.41653884      0.63557605      0.11409525
C      -2.56338768     -0.05731511      0.14420398
H       0.96634024     -1.19989799      1.54849282
H      -0.76463366     -1.25440956      1.91675825
H      -0.17085807     -1.88015873      0.37169986
H       1.80002143      0.87738449      0.83876526
H       0.76542603      1.94863263     -0.10875366
H       0.82284028      0.16613806     -1.99364624
H       2.96563439     -0.47376265     -2.19231031
H      -1.41641902      1.64371915     -0.28688125
H      -3.47354162      0.41019953     -0.19830324
H      -2.63324137     -1.06960959      0.51349420
