18
b3lypvtz=-210214.54405408
C       2.75878544     -0.27723318     -0.48275554
C       1.54491966     -0.05185635      0.39942005
C       0.30488706     -0.97031998      0.23155125
C      -0.60149141      0.26929249      0.44263370
C      -1.82684107      0.43671395     -0.41509850
F      -2.79393488     -0.51605876     -0.07581637
C       0.62314195      1.16637446      0.11846447
H       3.50230877      0.51156150     -0.34566472
H       3.24209019     -1.23024406     -0.25500464
H       2.47862952     -0.29098423     -1.53886495
H       1.84927489     -0.03954570      1.44876755
H       0.22518378     -1.34875372     -0.79053436
H       0.18975695     -1.80558889      0.92050441
H      -0.88469876      0.36685447      1.49239917
H      -2.27845598      1.42337978     -0.27944521
H      -1.59198458      0.29754266     -1.47406394
H       0.64781243      1.44191320     -0.93923231
H       0.76587803      2.06690336      0.71502494
