16
b3lypvtz=-181115.28344105
C      -1.87071652      0.82555788      0.68220948
C      -1.81940196     -0.34052059     -0.26578623
N      -1.30721706     -1.60709257      0.26220149
C      -0.53335880     -0.89971670     -0.78928316
C       0.75431048     -0.36368355     -0.43774965
C       1.83408626      0.09770773     -0.17992049
C       3.14156039      0.64760884      0.14733659
H      -0.99429009      0.83225862      1.32788029
H      -2.76065638      0.76581041      1.31202984
H      -1.90474481      1.76906661      0.13341559
H      -2.65155603     -0.40078465     -0.96175481
H      -1.79251925     -2.39823089     -0.14750406
H      -0.58071086     -1.31831842     -1.78944209
H       3.63823152      1.03712599     -0.74371812
H       3.05595594      1.46625018      0.86485562
H       3.79092717     -0.11323888      0.58532971
