14
b3lypvtz=-203687.62038832
C      -2.76288146     -0.44699210     -1.17013066
C      -1.86061313     -0.41180452     -0.19254859
N      -0.49134557     -0.35488439     -0.46661632
C       0.32060383     -0.32134411      0.51110311
C       1.80266293     -0.21733622      0.30096032
C       2.25067613      1.23560908      0.38493903
O       3.03168986      1.65984765      1.19318081
H      -3.81993375     -0.49020955     -0.95111016
H      -2.45196731     -0.43165904     -2.20558796
H      -2.16902320     -0.42635376      0.85447451
H      -0.02743103     -0.32574750      1.55206793
H       2.35463885     -0.78932185      1.04652713
H       2.03559729     -0.57838213     -0.70360234
H       1.78712657      1.89847846     -0.37255680
