12
b3lypvtz=-202948.71270295492
C       0.99794335     -0.97058173      0.00104604
C       1.33352273      0.36183940      0.05124745
C       0.33739400      1.41827013      0.05272016
O       0.58602416      2.62915972      0.09641399
C      -1.01509459      0.90916716     -0.00334998
N      -1.27015671     -0.40484430     -0.05056265
C      -0.33293040     -1.37390745     -0.05136927
H       1.76643241     -1.73186559      0.00143604
H       2.37064870      0.66803231      0.09190646
H      -1.86118817      1.57900036     -0.00872030
H      -2.23913848     -0.69003179     -0.08841854
H      -0.67345702     -2.39423823     -0.09234943
