15
b3lypvtz=-214543.74526157
C      -2.25006181     -0.64810998     -0.43691533
C      -1.12258548     -0.13851551      0.45421873
C      -0.62948488      1.28700216      0.07977043
O       0.79520103      1.13497197     -0.12104701
C       1.03870002     -0.19881284      0.03068446
N       2.33234273     -0.55371528     -0.23069425
N       0.08184092     -0.97278840      0.34840249
H      -2.51497792     -1.66907433     -0.16297774
H      -1.94179036     -0.64710122     -1.48409297
H      -3.14090633     -0.02319705     -0.33749766
H      -1.46878179     -0.15707528      1.49261505
H      -1.06526529      1.65365026     -0.85127908
H      -0.78504627      2.02663735      0.86391739
H       2.59636989     -1.45860859      0.12006658
H       3.01824853      0.17296275     -0.11356206
