14
b3lypvtz=-224563.17099655
N       2.86042495     -0.88685130      0.04922373
C       2.41809732      0.44364747      0.06522681
C       1.15509324      0.84013155     -0.07928276
O       0.15328744     -0.09672262     -0.23537067
N      -1.10732271      0.45581788      0.11225718
C      -2.02979298     -0.38991266     -0.12686916
N      -3.33813018     -0.14098107      0.22221001
H       2.11441561     -1.54926682      0.20946755
H       3.63114953     -1.06159558      0.67692623
H       3.19103571      1.19723818      0.11827152
H       0.85012521      1.87285123     -0.13390644
H      -1.82205943     -1.36418046     -0.56281565
H      -3.53426847      0.81721012      0.47201639
H      -4.03489224     -0.55171092     -0.37789171
