15
b3lypvtz=-170276.56864244465
C       3.12645273      0.91672978      0.00042661
C       1.89011520      0.65477085      0.31163470
C       0.65111160      0.38830258      0.61488740
C      -0.31955405     -0.32293001     -0.28406894
C      -1.73276343      0.35878325     -0.47585645
C      -2.29862645     -0.90023288      0.14496273
C      -1.10951497     -1.47670595      0.32338044
H       3.92632842      0.21940169      0.22268474
H       3.40252024      1.84406608     -0.48877143
H       0.27674437      0.68864989      1.59119252
H       0.16277739     -0.56648312     -1.23191098
H      -2.00586883      0.55323554     -1.51523982
H      -1.86763813      1.27695853      0.09860985
H      -3.31374379     -1.21259601      0.35159055
H      -0.78834032     -2.42195021      0.74110368
