15
b3lypvtz=-216916.57861227
C      -1.63543459     -0.70838955     -0.79892404
C      -0.98819216     -0.31949347      0.30590518
O      -1.54547997     -0.59870260      1.52295408
C       0.28974018      0.42494319      0.30317275
C       0.67197721      1.16800811      1.34543338
C       1.16220424      0.29436394     -0.92465263
O       1.58264214     -1.04102114     -1.17514968
H      -2.56562907     -1.25153323     -0.72395482
H      -1.28113011     -0.43606294     -1.78013766
H      -0.86379778     -0.53534261      2.20092158
H       1.62261425      1.68351327      1.34359727
H       0.04378390      1.32299366      2.21370104
H       2.07162241      0.87588257     -0.78387906
H       0.64098033      0.71054480     -1.79604516
H       0.79409904     -1.58980402     -1.25294222
