13
b3lypvtz=-242068.75680576
C       2.51883659      0.33216376      0.62915805
N       1.36045234     -0.51890856      0.39056265
C       0.30516858      0.04121954     -0.04398583
C      -0.89631366     -0.71992317     -0.31159620
C      -2.02768411     -0.18200508     -0.76863262
O      -3.15573062     -0.85106138     -1.02770045
F      -2.15245346      1.13328311     -1.02402449
H       2.30832063      1.10251838      1.37856568
H       2.84761524      0.83537178     -0.28633964
H       3.34635513     -0.27366828      0.99463673
H       0.25384361      1.12107371     -0.23606209
H      -0.88238549     -1.78479215     -0.13322207
H      -3.82602480     -0.23517167     -1.34745971
