16
b3lypvtz=-181106.49598663
C       3.61544972      0.27521535     -0.14463678
C       2.51289634     -0.19753335     -0.12289936
C       1.16180692     -0.74452752     -0.10149224
C       0.07734619      0.31286706     -0.39286474
C      -1.31310388     -0.26994973     -0.35735757
C      -2.47518945      0.55432760      0.04017634
N      -1.98944478     -0.51945876      0.92636361
H       4.59438671      0.68444864     -0.16262336
H       1.08784669     -1.55109606     -0.83689597
H       0.97309836     -1.20420690      0.87278023
H       0.26834809      0.75534079     -1.37386036
H       0.15809083      1.12307728      0.33699190
H      -1.48808860     -1.06208140     -1.07964654
H      -2.28835969      1.58371133      0.32384925
H      -3.44726208      0.37630572     -0.40204116
H      -1.44782139     -0.11644005      1.68563993
