12
b3lypvtz=-247148.61594529
N      -2.94072236      0.22955499     -0.55296037
N      -1.63059393      0.62508466     -0.76472929
C      -0.72375324      0.00209506     -0.15505095
O       0.56625174      0.46133189     -0.30289157
C       1.56116426     -0.26124648      0.30901178
N       2.74793576      0.36123388      0.10520811
O       1.39020647     -1.27557106      0.93901605
H      -3.04667993     -0.76049165     -0.34538256
H      -3.48501689      0.47423012     -1.36672475
H      -0.83058011     -0.86179237      0.49482245
H       2.81096425      1.12855235     -0.53899329
H       3.58082397     -0.12298137      0.38457439
