19
b3lypvtz=-216049.22510281
C       3.21219208      0.21270055     -0.24660149
C       1.81018441     -0.36181208     -0.44860177
C       0.87898867     -0.05849192      0.73335335
N      -0.47798514     -0.58640804      0.63470925
C      -1.37168224      0.03787803     -0.29961465
N      -2.56990283     -0.76201287     -0.33938792
O      -1.55432780      1.38044170      0.17244185
H       3.86629908     -0.02192093     -1.08758689
H       3.18147151      1.29958679     -0.14343928
H       3.67692839     -0.18934693      0.65659916
H       1.87225559     -1.44626048     -0.58542213
H       1.38159553      0.04019653     -1.37076404
H       0.79982465      1.01940544      0.87736208
H       1.32300964     -0.46171909      1.64776779
H      -0.49184917     -1.58559920      0.48293872
H      -0.98924290      0.09775722     -1.33187631
H      -3.01486483     -0.73415239      0.57190070
H      -3.22359802     -0.40768830     -1.02589762
H      -1.83295759      1.92465596     -0.57015980
