16
b3lypvtz=-181147.65577629
N       2.55022514      0.32660439      0.02669363
C       1.44730986     -0.56386447     -0.34384981
C       0.17943730     -0.24423862      0.46909774
C      -0.41095384      1.11676233      0.20656451
C      -1.69186291      0.98533991     -0.17585507
C      -2.04354370     -0.43787841     -0.20212634
C      -0.97473053     -1.16189668      0.16704706
H       3.42041950     -0.01009760     -0.36719260
H       2.40168084      1.25223070     -0.35778687
H       1.19219117     -0.53723726     -1.41128186
H       1.75481500     -1.58601623     -0.11291547
H       0.45589405     -0.31859931      1.52922726
H       0.12717896      2.04296700      0.34100027
H      -2.37144075      1.78908945     -0.42123220
H      -3.01541873     -0.82458163     -0.47382373
H      -0.91822836     -2.23802656      0.24103147
