15
b3lypvtz=-214501.69997446
C       2.04631165      1.38620407      0.08205101
C       1.46362335      0.20450941     -0.10898673
C       0.01983941     -0.03310416     -0.04405874
N      -0.56679006     -1.16701298     -0.01406701
N       0.23357348     -2.32008037     -0.02592747
O      -0.72074251      1.10479426     -0.03489920
C      -2.13786534      0.95438444      0.02495968
H       3.11834879      1.49891611     -0.00721601
H       1.46923138      2.26673816      0.32693738
H       2.05958562     -0.66290073     -0.36170534
H      -0.37986663     -3.09914491      0.16701741
H       0.94535382     -2.29924849      0.69854117
H      -2.50973028      0.40935175     -0.84325728
H      -2.43608465      0.41525104      0.92517115
H      -2.53803003      1.96514040      0.03676000
