15
b3lypvtz=-242812.8540635
O       0.48633258      1.50401910     -0.48334983
C      -0.00717486      0.28067508      0.01862071
C       1.07717100     -0.46012595      0.76809875
F       2.13531903     -0.73470229     -0.11015800
C      -0.83401262     -0.61457787     -0.94574841
N      -1.98027611     -0.61677955      0.01170646
C      -1.30364064      0.42407184      0.84037272
H       1.32438246      1.32951313     -0.92807897
H       0.71803083     -1.41165364      1.16474871
H       1.47482525      0.15609838      1.57673652
H      -1.08994920     -0.09134449     -1.86794925
H      -0.41452251     -1.59114106     -1.19129013
H      -2.04618871     -1.49677832      0.50680659
H      -1.23333071      0.21191318      1.90986221
H      -1.75926981      1.40574948      0.70518590
