14
b3lypvtz=-226961.63359746
C      -1.93751590      1.22355280     -1.06057212
C      -1.33268654      0.09550192     -0.69570595
C      -0.01772893      0.00940277     -0.04191888
C       0.83856109     -1.22383148     -0.26685987
O       1.18263868     -1.89894708      0.93094459
N       0.34490246      0.99298697      0.69231090
O       1.65291963      0.80837784      1.20127266
H      -1.47612979      2.18788572     -0.89615392
H      -2.91111912      1.20724696     -1.53103343
H      -1.80656437     -0.85795259     -0.90297424
H       0.29092757     -1.94011629     -0.87702472
H       1.73132796     -0.92309243     -0.82943236
H       1.66860907     -1.26778363      1.47417366
H       1.77195818      1.58686851      1.75387369
