14
b3lypvtz=-226999.2943692
C       2.82518845      0.06752463      0.02406789
N       1.55212318      0.64617714     -0.34390436
C       0.49608345      0.01505502     -0.01748829
C      -0.82259438      0.50851529     -0.33895644
C      -1.96008689     -0.12896605     -0.01103117
O      -3.21332583      0.30321688     -0.29629620
O      -1.99534822     -1.29648101      0.65326491
H       2.73925307     -0.88726149      0.56275458
H       3.38008070      0.77119507      0.65038913
H       3.42771426     -0.09315765     -0.87395239
H       0.54247703     -0.93791536      0.52599133
H      -0.88701638      1.44595112     -0.87475711
H      -3.16682934      1.13990537     -0.77209834
H      -2.91771912     -1.55375895      0.77133918
