13
b3lypvtz=-190447.83197835
C       1.91293638     -0.58131899     -0.16151847
C       0.59545995     -0.45600694     -0.22710746
C      -0.35823692      0.73545325     -0.38368211
C      -1.46900653     -0.26883377      0.07004494
N      -0.48483754     -1.34781478     -0.13848960
C      -0.12821677      1.90669387      0.43794527
N       0.04419498      2.83893975      1.09038867
H       2.54808575      0.28596498     -0.26075525
H       2.38256660     -1.54203318     -0.00148615
H      -0.47697385      1.03678661     -1.42479958
H      -2.35052038     -0.32815120     -0.56628905
H      -1.76426505     -0.11675485      1.10933171
H      -0.45118661     -2.16292476      0.45641710
