14
b3lypvtz=-203676.7492259374
C       1.44893144     -0.43919631      0.45289893
C       0.08573215      0.16034486      0.14440525
C      -0.77160010     -0.51186729     -0.96938869
C      -1.65506400     -0.79699435      0.20995957
N      -0.97689301     -0.24606537      1.14870822
C       0.17342456      1.66897235      0.09037174
O       0.02253606      2.33408941     -0.90104307
H       1.85109446     -0.02386510      1.37860905
H       1.36274451     -1.51888262      0.57875469
H       2.15328310     -0.23493815     -0.35530130
H      -0.32175321     -1.37788989     -1.45581199
H      -1.16532747      0.16750053     -1.72418970
H      -2.60184336     -1.31833687      0.33064609
H       0.39473486      2.13712879      1.07138119
