18
b3lypvtz=-181883.69135079
N       2.78548549      0.44713263      0.13136674
C       1.75482611     -0.56910941     -0.09987722
C       0.35222483     -0.21207988      0.35090873
C      -0.80257380     -0.88263636     -0.33371611
C      -2.12544613     -0.51524214      0.34371973
C      -1.81825211      0.99615582      0.08722586
C      -0.50079162      0.59796270     -0.58352229
H       2.51345139      1.32252297     -0.30211620
H       2.87303086      0.63628981      1.12353687
H       2.07745960     -1.48504282      0.40210095
H       1.74271242     -0.79766360     -1.16957301
H       0.26586490     -0.01377879      1.41881942
H      -0.64932465     -1.72394312     -0.99626125
H      -2.99941001     -0.85387167     -0.21036695
H      -2.22988416     -0.82880926      1.38460471
H      -1.73014770      1.63854055      0.96610012
H      -2.53130955      1.44622381     -0.60153862
H      -0.08170587      1.06038576     -1.46786647
