14
b3lypvtz=-201259.37097317
C      -2.92488164     -0.38067045      0.07472161
N      -1.83065251      0.27232473      0.08700693
N      -0.67757609     -0.39858439     -0.02641586
C       0.54747174      0.25494942     -0.11401043
C       0.72568184      1.58180421     -0.08259319
N       1.56785710     -0.69532233     -0.32396275
C       2.67851218     -0.56685864      0.26674977
H      -3.84576019      0.17595651      0.17430200
H      -2.97378087     -1.46706840     -0.03027362
H      -0.67375491     -1.39626803     -0.20646411
H      -0.11521238      2.24940640      0.00865430
H       1.71340687      1.99519783     -0.20614499
H       3.47115635     -1.27928331      0.05364328
H       2.88629450      0.23123344      0.98441406
