16
b3lypvtz=-181126.36252242
C       2.74009405      0.34754779     -0.59393966
N       1.57536646      0.07774184     -1.00262936
C       0.55203595     -0.20803901     -0.07354093
C       0.66333629     -1.19901265      0.81597469
C      -0.65759264      0.63538171     -0.27620840
C      -2.00592366      0.27424066      0.27643153
C      -1.76052382      0.17496989     -1.20339223
H       2.99927607      0.41203836      0.46802446
H       3.53003588      0.52542219     -1.31989641
H      -0.14459965     -1.44218055      1.48946749
H       1.54770081     -1.81955846      0.85164523
H      -0.43436457      1.69472394     -0.33302924
H      -2.10523473     -0.64772089      0.83072128
H      -2.62697045      1.07990417      0.64238671
H      -2.21125722      0.90789516     -1.85784209
H      -1.66127877     -0.81315415     -1.62977307
