10
b3lypvtz=-202131.98530243
C      -2.91970719      0.02393357     -0.00004710
C      -1.72042939     -0.00750460     -0.00012527
C      -0.30114664      0.00042793     -0.00021944
N       0.38601493     -1.12452310      0.00019437
O       1.71969241     -0.74155666      0.00003676
C       1.79571996      0.59902741     -0.00001354
C       0.55860377      1.14086646      0.00000020
H      -3.98127896      0.03987500      0.00002305
H       2.78772064      1.01764342     -0.00005652
H       0.27613848      2.17737956      0.00012449
