18
b3lypvtz=-181888.82794254
C      -2.93678749     -0.37972689      0.40067056
C      -1.64044545     -0.41972728     -0.42169872
C      -0.90030679      0.88448056     -0.37479903
C       0.33867808      1.10551302      0.06285023
C       1.30578095      0.10091118      0.58726752
C       1.73905566     -1.07292956     -0.20832364
N       2.66836928      0.04589044      0.02058246
H      -2.72490783     -0.19888537      1.45559506
H      -3.59975558      0.41565012      0.05432110
H      -3.47803761     -1.32365806      0.32055570
H      -1.00580563     -1.23191105     -0.06853534
H      -1.89574690     -0.64704438     -1.46281127
H      -1.46892036      1.74591739     -0.71702957
H       0.69856523      2.13149442      0.07407646
H       1.31507228     -0.00238777      1.66897054
H       1.31232161     -1.19327814     -1.19628175
H       2.00614504     -1.99780025      0.28827029
H       2.70438649      0.62603063     -0.81288361
