16
b3lypvtz=-204455.71733574
C      -2.65135947      0.88763319      0.00015367
C      -2.25274326     -0.37633568      0.00003430
C      -0.84223779     -0.86679913     -0.00006728
O       0.06432939      0.23942397     -0.00008585
C       1.38470454     -0.05007178      0.00003238
C       2.19329202      1.21785775      0.00003118
N       1.79267782     -1.24971308      0.00013826
H      -3.70328196      1.13913682      0.00022496
H      -1.94381824      1.70482656      0.00018168
H      -2.98925075     -1.17438824      0.00000842
H      -0.64778101     -1.49552882     -0.87393817
H      -0.64767372     -1.49559193      0.87373222
H       3.25883191      1.00041055     -0.00004541
H       1.94903412      1.81649725      0.87859339
H       1.94891874      1.81657689     -0.87844277
H       2.80671566     -1.28566631      0.00022502
