16
b3lypvtz=-227782.02478736
C      -2.68525672      0.21411548      0.01522205
N      -1.30081993      0.53313008     -0.28803632
C      -0.27065988     -0.30539854     -0.03321953
O      -0.40393804     -1.41283810      0.47057142
C       1.13341278      0.19908275     -0.40607973
C       1.57051811      1.37423957      0.47269909
O       2.03968254     -0.87011281     -0.28012732
H      -3.29254570      0.20485108     -0.89152909
H      -2.70779541     -0.77422536      0.46545154
H      -3.10930537      0.93450451      0.71686325
H      -1.09623998      1.41388896     -0.72793664
H       1.11134473      0.52309808     -1.45500542
H       2.59420023      1.64684828      0.21824281
H       0.93668518      2.25226195      0.33190853
H       1.54361407      1.08746138      1.52452222
H       1.52589438     -1.59441430      0.11624213
