8
b3lypvtz=-271322.85899593
O       0.76971200      0.04227922     -0.33855398
C       0.16900978      1.10732437     -0.83408726
N      -0.88162098      1.08384413     -1.56293110
O      -1.11348189      2.47974112     -1.82619973
C      -0.16918583      3.22515742     -1.22397692
O      -0.04540133      4.39964770     -1.22407817
O       0.68356377      2.32552393     -0.56523719
H       1.54050449      0.31178210      0.17736434
