15
b3lypvtz=-216923.41065932
C       2.08134509     -0.48508392      0.64993568
C       1.06590346     -0.21572386     -0.43860884
O      -0.00000032     -1.20385309     -0.52389059
C      -1.06590360     -0.21572331     -0.43860909
C      -2.08134560     -0.48508279      0.64993523
C       0.00000018      0.85742975     -0.20176003
O       0.00000045      2.01170864      0.10215204
H       2.79612733      0.33799883      0.69868533
H       1.59849986     -0.58661645      1.62153553
H       2.62788271     -1.40420319      0.43653010
H       1.55788133     -0.09323471     -1.41088675
H      -1.55788119     -0.09323392     -1.41088710
H      -2.62788360     -1.40420183      0.43652963
H      -2.79612746      0.33800030      0.69868463
H      -1.59850064     -0.58661544      1.62153521
