16
b3lypvtz=-204453.81560553
C      -3.28054022     -0.72638228      0.00000278
C      -2.34739168      0.22295799     -0.00000036
N      -0.98259884     -0.06502531     -0.00000170
C      -0.17297962      0.91143538     -0.00000541
O       1.15472826      0.78768694     -0.00000454
C       1.69540382     -0.55335869     -0.00000230
C       3.20290097     -0.43592127      0.00000164
H      -3.00717903     -1.77254350      0.00000415
H      -4.32997168     -0.47028654      0.00000340
H      -2.64175939      1.27465472     -0.00000254
H      -0.45957280      1.96592917     -0.00000311
H       1.32227718     -1.07898562     -0.87977377
H       1.32227241     -1.07898453      0.87976776
H       3.64931691     -1.43130562      0.00000339
H       3.55363577      0.09661111     -0.88425561
H       3.55363097      0.09661204      0.88426024
