13
b3lypvtz=-213766.32680524
C      -2.66514125     -0.79638811      0.93743888
C      -1.64583709     -0.54676686      0.11678964
N      -0.41837602     -0.10941421      0.60744676
C       0.52549425      0.11578587     -0.21412920
C       1.84632957      0.58341717      0.27601521
N       2.19097329      0.80519748      1.47148985
O       2.70888736      0.76286414     -0.75364314
H      -2.55587150     -0.66292085      2.00481306
H      -3.61729119     -1.13560515      0.55597338
H      -1.74708097     -0.67871776     -0.96124562
H       0.42644097     -0.01630217     -1.29575195
H       1.40899584      0.61358464      2.09478493
H       3.54257672      1.06536580     -0.36628179
