15
b3lypvtz=-193590.68580009
C       1.30819289     -0.23762551     -0.29532779
C       0.80902583      1.15795101      0.17104236
C      -0.69747188      0.97306615      0.24318290
C      -0.94460322     -0.45311774      0.77554537
C       0.12546830     -1.16634505     -0.02688214
C      -1.19595744     -0.78183999     -0.65666615
O      -1.16607431      0.57887589     -1.09899008
H       1.57216354     -0.22702224     -1.35313919
H       2.18960730     -0.55894143      0.26019003
H       1.08245893      1.95672352     -0.51871073
H       1.20007475      1.41213778      1.15996437
H      -1.28323412      1.80010590      0.63777132
H      -1.40809230     -0.76939470      1.69683350
H       0.28716998     -2.22133980      0.14969415
H      -1.87872826     -1.46323378     -1.14450791
