16
b3lypvtz=-204435.5360412
O      -1.51241489      1.03184101     -1.19522652
C      -0.73501150      0.36865841     -0.23344486
C       0.27628283      1.19060275      0.58556269
N       1.60996903      0.60344778      0.34865521
C       1.37085425     -0.81632792      0.00485692
C      -0.03417843     -0.90198162     -0.59608172
C      -1.21438004     -0.92385511      0.35835480
H      -2.29852665      1.38221462     -0.76360595
H       0.04497946      1.14850558      1.65415570
H       0.25368255      2.23472068      0.27690505
H       2.00428533      1.05603199     -0.46764641
H       1.44696103     -1.42491264      0.91086322
H       2.13633818     -1.16811298     -0.68624118
H      -0.17822603     -1.33134453     -1.57768745
H      -1.03024309     -1.12008917      1.40857256
H      -2.14047205     -1.32939884     -0.02799208
