14
b3lypvtz=-227006.19704871
C       1.56124578     -1.46544064     -0.00035017
C       1.06064990     -0.22442574      0.00014279
O       1.84809504      0.88836274      0.00073502
N      -0.28973715      0.16492792      0.00013766
C      -0.64037872      1.58944392     -0.00027885
C      -1.31092786     -0.75863414      0.00073057
O      -2.48925945     -0.48059917      0.00017309
H       2.63276638     -1.60205314     -0.00007200
H       0.95458072     -2.35271711     -0.00103288
H       2.76889649      0.60769649      0.00045731
H      -0.24463453      2.08297415     -0.88562798
H      -1.72361425      1.64458999     -0.00016696
H      -0.24439690      2.08361333      0.88459853
H      -0.95759645     -1.79553561      0.00020388
