16
b3lypvtz=-181159.54440136
C      -2.28256002      0.19370910      0.08407339
C      -0.81944533     -0.08921581     -0.01276861
C       0.21217183      0.97871829      0.26384340
C       1.54777863      0.26778995      0.05168151
N       2.72023227      0.72879225      0.16064025
C       1.26178944     -1.17717026     -0.33774328
C      -0.23947397     -1.24591943     -0.33579247
H      -2.87760955     -0.68923492     -0.14885337
H      -2.55336496      0.53185203      1.08887892
H      -2.57589219      0.99343228     -0.60275558
H       0.11414296      1.83789964     -0.40945996
H       0.13756469      1.37732022      1.28202513
H       2.70706631      1.71410697      0.42888015
H       1.72728781     -1.86530418      0.37444181
H       1.70383724     -1.40594356     -1.31225275
H      -0.78342515     -2.15083258     -0.57493854
