18
b3lypvtz=-205210.10621948
C      -3.24049152     -0.31508017     -0.22140855
C      -1.83493062      0.20220910     -0.20637548
C      -0.84124554     -0.31637340      0.50809244
C       0.58234337      0.16835459      0.53539953
N       0.74196166      1.47444961     -0.10901861
C       1.48854631     -0.84275806     -0.18188895
O       2.86101816     -0.45229093     -0.15296119
H      -3.94824946      0.45369053      0.10163550
H      -3.54038902     -0.60699074     -1.23184769
H      -3.35932939     -1.18089341      0.43106952
H      -1.62856609      1.05978154     -0.83862044
H      -1.03776700     -1.18445571      1.13264860
H       0.90805697      0.18613646      1.58742619
H       1.68654119      1.80369876      0.05251149
H       0.12441895      2.15156711      0.32444961
H       1.13725120     -0.96327744     -1.21031158
H       1.42715722     -1.80989221      0.31969768
H       3.03124559      0.09391137     -0.92488608
