16
b3lypvtz=-202044.80206032
N      -2.16060860     -0.66378181     -0.06471817
C      -0.80240447     -0.34534479      0.05630916
C      -0.46379291      0.53945883      1.19282058
N      -1.27951781      1.16346076      1.94283551
C       0.12717779     -0.74964653     -0.82928239
C       1.57191214     -0.32315589     -0.84992464
N       1.72149605      1.12110322     -1.10289713
H      -2.59962235     -0.93427839      0.80448803
H      -2.36096574     -1.33514569     -0.79070278
H       0.59690245      0.65617449      1.39525784
H      -2.24146564      1.02746872      1.62420419
H      -0.19029356     -1.40921822     -1.63111228
H       2.09181000     -0.94852955     -1.58628206
H       2.04899895     -0.53097042      0.11251688
H       2.70001411      1.35666617     -1.23091571
H       1.24045961      1.37563911     -1.95829703
