16
b3lypvtz=-227776.8713156
C       1.91622486      1.25780660      0.19354724
C       1.12360381      0.02125252     -0.23502148
C       1.94187012     -1.25793858     -0.04962685
N      -0.08820834     -0.07114645      0.57892619
C      -1.22495792     -0.00965674      0.05391871
O      -2.36678086     -0.09364722      0.78497758
O      -1.51148861      0.14254142     -1.25815295
H       2.84198374      1.34019955     -0.37910411
H       2.16845678      1.19732248      1.25371165
H       1.33503942      2.16707060      0.03552141
H       0.87406515      0.12142828     -1.29615574
H       2.86861265     -1.21002734     -0.62462396
H       2.19341383     -1.39697560      1.00333237
H       1.37907356     -2.13147932     -0.38100842
H      -2.09010913     -0.20170590      1.70439342
H      -2.47033106      0.15233470     -1.36349106
