18
b3lypvtz=-181915.52070209
C      -3.00895933     -0.67780040     -0.00372249
C      -1.77631732      0.17088992      0.00949116
C      -0.52373992     -0.30522618     -0.00291338
C       0.70256528      0.47584247      0.00316705
C       0.60501727      1.97875603      0.00443972
C       1.92216013     -0.10428550     -0.00230033
N       2.22814687     -1.45871760     -0.06722892
H      -3.63389886     -0.46218180     -0.87608384
H      -2.76417478     -1.74101997     -0.02154902
H      -3.63312602     -0.49084071      0.87581854
H      -1.93809403      1.24359465      0.02733233
H      -0.41867714     -1.38711262     -0.03376611
H       1.59432947      2.43645965      0.00584709
H       0.06692788      2.34744911      0.88280767
H       0.06777089      2.34946150     -0.87378302
H       2.80067931      0.52993034     -0.01724668
H       1.50846825     -2.09727929      0.23109042
H       3.12618106     -1.70729457      0.31368183
