20
b3lypvtz=-182653.81959031
C       1.56999789      1.20747815     -0.13468428
N       0.81062563     -0.00001508     -0.41628019
C       1.57010703     -1.20744569     -0.13476461
C      -0.53159768     -0.00002885      0.12894353
C      -0.68962687      0.00000975      1.64144817
C      -1.54739242     -0.75497726     -0.68552824
C      -1.54724360      0.75494453     -0.68569346
H       0.97806545      2.08468115     -0.39633259
H       2.47649116      1.21589608     -0.74298332
H       1.87830321      1.30439479      0.91921848
H       0.97825541     -2.08469548     -0.39643243
H       1.87850119     -1.30438739      0.91911112
H       2.47655432     -1.21572064     -0.74313580
H      -0.23146375     -0.88331548      2.09158786
H      -0.23143585      0.88331489      2.09159629
H      -1.74398439      0.00002730      1.91928634
H      -2.34196118     -1.27028680     -0.16281237
H      -1.19583661     -1.24632386     -1.58141145
H      -1.19531033      1.24579119     -1.58169961
H      -2.34173660      1.27070770     -0.16331445
