19
b3lypvtz=-192726.05012201
C      -1.98176153      1.02465451     -0.10138586
C      -1.03760371     -0.17419609     -0.17693871
C       0.33043797      0.23749077     -0.73524400
C       1.43315622     -0.85283931     -0.77320022
C       2.13973455     -0.05903150      0.34825548
N       1.19163639      1.06860351      0.15094863
N      -0.90231803     -0.75549607      1.16617509
H      -2.11032796      1.47933320     -1.08406548
H      -2.96772972      0.72264858      0.25916700
H      -1.59607651      1.78401706      0.58110427
H      -1.45917436     -0.89002644     -0.90090788
H       0.15199563      0.71818939     -1.70210476
H       1.12228613     -1.86874723     -0.52888811
H       1.98348956     -0.88000759     -1.71167668
H       3.18169046      0.21059664      0.16525167
H       2.06645818     -0.53499380      1.32914638
H       0.72150227      1.33538823      1.00767474
H      -0.45219125     -1.66208797      1.12765235
H      -1.81520427     -0.90349590      1.57903611
