15
b3lypvtz=-191166.0162072629
C       2.21808110     -0.22876613      0.31121287
C       0.83050553     -0.24528055     -0.27041795
C      -0.13950040      0.82081409      0.07307071
N      -0.25122362     -0.58588149      0.67689087
C      -1.47356289     -0.75522600     -0.14310939
C      -1.44161182      0.64828299     -0.66314367
N      -2.50587836      0.17072819      0.23110147
H       2.61863081     -1.24169210      0.37448897
H       2.21329300      0.19354039      1.31592304
H       2.88975963      0.36421138     -0.31245428
H       0.75272071     -0.67803532     -1.26386683
H       0.13759296      1.66876555      0.68838944
H      -1.72306179     -1.70518835     -0.59451599
H      -1.72601802      1.07947202     -1.61238760
H      -2.39972682      0.49425533      1.18881833
