17
b3lypvtz=-215278.20397379
C       1.52308969     -1.56705296     -0.09838149
N       1.57450406     -0.11880428     -0.22473626
C       0.58440450      0.77073413      0.12046388
N       0.56029223      2.01722629     -0.17527333
C      -0.55973782      0.23102342      0.96336167
O      -1.34155830     -0.74911687      0.29738017
C      -2.19041825     -0.21081649     -0.70379562
H       2.53919473     -1.95500127     -0.16519612
H       0.91066098     -2.04512800     -0.86729109
H       1.12219922     -1.85542235      0.87057285
H       2.24896576      0.23636747     -0.88338934
H       1.37520722      2.29149301     -0.72753091
H      -0.17220155     -0.25194550      1.86235298
H      -1.16666668      1.08913000      1.25938618
H      -2.89480791      0.51185710     -0.27655894
H      -2.74633004     -1.04582741     -1.12649145
H      -1.62666585      0.28731672     -1.49839820
