17
b3lypvtz=-191962.22631958
C       0.32143504      1.21719323     -0.09866092
C       1.70076565      0.59308686     -0.36787538
N       1.69420966     -0.70803237      0.32396886
C       0.32735638     -1.22138588      0.16263515
C      -0.59413921     -0.00205266     -0.04297009
C      -1.98632467      0.03923445      0.45074758
N      -1.71068528     -0.06826416     -0.99668872
H       0.32806358      1.73176093      0.86630459
H      -0.00761716      1.92312933     -0.86030696
H       1.83462100      0.41735437     -1.43891920
H       2.53700552      1.20219435     -0.02714906
H       1.87405524     -0.55251203      1.30902533
H       0.28584800     -1.85955421     -0.72726657
H       0.04396347     -1.83410342      1.01865106
H      -2.42696227      0.98002249      0.76085055
H      -2.37259292     -0.83079818      0.97085255
H      -1.84900202     -1.02727309     -1.30319878
