11
b3lypvtz=-215381.74370842
O       3.66497146      0.79958790     -0.12769289
C       2.87189041      0.44584267     -0.97549215
C       1.48604847      0.18637140     -0.73660231
C       0.30841617     -0.03998042     -0.56083796
C      -1.05635089     -0.30381424     -0.36294988
C      -1.62792741     -0.17751734      0.84610209
O      -2.93830250     -0.43191261      1.03223510
H       3.18730288      0.29741073     -2.02476978
H      -1.66191272     -0.61663019     -1.20563132
H      -1.05529569      0.13313129      1.71269988
H      -3.17884016     -0.29228918      1.95283922
