13
b3lypvtz=-192838.78873765
C      -2.74710866      0.35065507     -0.00022003
C      -1.60661738     -0.02558902     -0.00012702
C      -0.24897132     -0.55558852      0.00002585
O      -0.06974028     -1.75947402      0.00008989
C       0.89069653      0.40443435      0.00008494
C       0.67140653      1.72108449      0.00007636
C       2.25586768     -0.21777711     -0.00001686
H      -3.75843232      0.67586429     -0.00037399
H       1.49168047      2.42708566      0.00009156
H      -0.33055728      2.12717720      0.00005131
H       2.38744158     -0.85903376     -0.87291264
H       3.03141867      0.54619870     -0.00012038
H       2.38774677     -0.85903234      0.87284502
