15
b3lypvtz=-237838.08393556
N      -2.06648351     -0.09618180     -0.36677245
C      -0.91885977     -0.47922699      0.04211624
N      -0.47983100     -1.75613303      0.25270166
C       0.07572304      0.62702809      0.40103761
O      -0.50412313      1.88625989      0.18205660
C       1.37323334      0.55256571     -0.40889801
O       2.12115771     -0.59546093      0.01272440
H      -2.70019234     -0.86020479     -0.58629846
H       0.51955569     -1.89507769      0.29523077
H      -1.02489075     -2.51392054     -0.12312818
H       0.34052279      0.50441447      1.45979222
H      -1.41020434      1.68864295     -0.12530351
H       1.13731049      0.50479317     -1.47682749
H       1.93000933      1.47245208     -0.21632926
H       2.93383844     -0.64373962     -0.49724016
