15
b3lypvtz=-191198.30582421
C      -1.75080183     -0.11274092      0.29380917
C      -0.28696219     -0.05941632     -0.01900110
C       0.39401456     -0.89061722     -1.10635875
C       0.85827391     -1.00242642      0.31126005
N       1.68619509      0.13948283      0.70875205
C       0.67752176      1.05553683      0.33983834
N       0.71680412      2.31599567      0.35311943
H      -2.31203327      0.58240738     -0.33547985
H      -1.94170761      0.15008872      1.33581636
H      -2.15453104     -1.11052241      0.11682803
H       1.02569309     -0.41579488     -1.84781296
H      -0.20883934     -1.70935399     -1.48170686
H       0.84107059     -1.90864950      0.89868739
H       2.63181411      0.25554024      0.36413952
H      -0.17661194      2.71046999      0.06820918
