15
b3lypvtz=-214516.08119266
N      -3.34383588      0.40979350      0.44873235
C      -2.40130163     -0.44169782     -0.28683021
C      -1.05870006      0.22024672     -0.35743350
N       0.01263443     -0.39154932     -0.04759957
C       1.23102220      0.26649435     -0.14352806
C       2.36171509     -0.37353555      0.17764170
O       3.61524027      0.13958271      0.13457556
H      -4.28965675      0.06357990      0.34714035
H      -3.12883985      0.39633684      1.43887049
H      -2.26808838     -1.45070278      0.11852321
H      -2.78815164     -0.54689571     -1.30657381
H      -1.06319889      1.26889208     -0.68251989
H       1.25793199      1.30627542     -0.48203023
H       2.34910783     -1.40157541      0.51087844
H       3.58257927      1.05566805     -0.16596683
