14
b3lypvtz=-224553.5716829218
C       1.74186070      0.22894962     -0.35144247
N       0.44528601     -0.04807903     -0.40575125
C      -0.27789877     -0.64752776     -1.36495235
O      -1.64682717     -0.38806020     -1.48602664
C      -2.42567855     -0.09711692     -0.44901913
N      -2.00275594      0.03489597      0.74568149
N       2.29265041      0.44821599      0.92942593
H       2.33163411      0.08168562     -1.24947425
H      -0.10195957      0.14827952      0.44450703
H       0.16993745     -0.85530285     -2.32271967
H      -3.45495960      0.01275828     -0.78654739
H      -2.76090190      0.26394418      1.37849179
H       2.97711611      1.19178396      0.93735051
H       2.71249668     -0.37442638      1.35377665
