15
b3lypvtz=-191189.38567036
C      -0.11278316      1.82284723     -0.00005244
C      -0.40113098      0.51952748     -0.00003922
C      -1.81286991      0.07007783      0.00004625
N      -2.21855618     -1.13058792      0.00007360
N       0.53722016     -0.55902296     -0.00009132
C       1.79784333     -0.41111882     -0.73875367
C       1.79773119     -0.41124289      0.73877633
H      -0.90919868      2.55409074     -0.00001508
H       0.89832246      2.20711591     -0.00009816
H      -2.55280593      0.87226373      0.00007401
H      -1.40251472     -1.75047502      0.00002994
H       2.10927317     -1.29189704     -1.28581528
H       1.97199434      0.53115315     -1.24431898
H       1.97176000      0.53095184      1.24451732
H       2.10911091     -1.29210225      1.28573371
