11
b3lypvtz=-210610.33661232
C      -2.49079874      0.30244543      0.00004393
N      -1.56986006     -0.57360773      0.00008261
C      -0.25239121     -0.14363599      0.00001362
N       0.26255538      1.07663299     -0.00024256
C       1.59628490      0.84287674      0.00004127
N       1.94611230     -0.43504466     -0.00024571
N       0.74783555     -1.04930377      0.00001419
H       0.67086489     -2.05297988      0.00009673
H      -3.52241206     -0.03558340      0.00011453
H      -2.29163095      1.37447946     -0.00006204
H       2.33455000      1.62778881      0.00034944
