16
b3lypvtz=-204442.48372569
C       2.07699390     -0.94764494      0.37048806
N       0.70491938     -0.70519473      0.81264624
C      -0.08468361      0.08752249     -0.11364462
C      -1.56436119     -0.06093181      0.15622767
C      -2.50329237     -0.17787384     -0.77301438
C       0.22307145      1.59236873     -0.06905178
O       0.86265596      2.11581144      0.80547379
H       2.06349005     -1.56381430     -0.53078926
H       2.65361292     -0.03788682      0.15762729
H       2.60338130     -1.50875445      1.14234554
H       0.72628121     -0.22624547      1.70640281
H       0.11642007     -0.24988139     -1.13546535
H      -1.83844895     -0.03849492      1.20631086
H      -3.54973080     -0.25827246     -0.51048118
H      -2.26241783     -0.21026079     -1.82915212
H      -0.22789149      2.18955325     -0.88815143
