15
b3lypvtz=-212099.54269817
C      -1.66969058     -0.84156625      0.28141569
C      -1.06652708      0.57066250      0.31848001
C       0.02206187      0.77386000     -0.71635682
N      -0.12183921      1.35864436     -1.83694468
N       1.33031775      0.26250525     -0.48523901
N       1.49330947     -0.21362189      0.66060047
N       2.70328381     -0.73744332      0.84515147
H      -2.46936890     -0.93231018      1.01770891
H      -2.08929754     -1.06228368     -0.70102412
H      -0.91778267     -1.59678048      0.50622648
H      -0.66832533      0.76547473      1.31422386
H      -1.84698152      1.30849944      0.12604915
H      -1.07678977      1.70152503     -1.93232419
H       2.96197271     -0.85465192      1.80898847
H       3.41555700     -0.50251359      0.16084430
