17
b3lypvtz=-194335.89016652
C       2.52150140     -0.19006975      0.01095943
O       1.34633047     -0.27810077     -0.77194547
C       0.27719000      0.46663325     -0.25661144
C      -1.09180377      0.24308470     -0.93194389
C      -1.15860515     -1.13626976     -0.21047812
C      -0.63679728     -0.13514758      0.86144220
C      -1.71652819      0.85677890      0.35197243
H       3.29605452     -0.75454911     -0.50506741
H       2.37742444     -0.61584171      1.01039760
H       2.85206223      0.85030279      0.11992083
H       0.57621786      1.51129452     -0.10466696
H      -1.35062744      0.46559487     -1.96544352
H      -0.46490207     -1.89913708     -0.55204638
H      -2.15753097     -1.53844954     -0.04061912
H      -0.37842295     -0.34524768      1.89800813
H      -2.74947813      0.58015634      0.55596061
H      -1.54208499      1.91896762      0.53016109
