15
b3lypvtz=-214523.37082589
C       3.15364924     -0.37080878      0.00401300
C       1.78609119      0.22981511      0.04697265
N       0.73969024     -0.49050573     -0.05737042
C      -0.52944476      0.07595862     -0.02562855
N      -0.70174747      1.47186027      0.06796371
C      -1.56713236     -0.77745453     -0.02030984
O      -2.85658573     -0.30328537      0.00447762
H       3.69753160     -0.15881883      0.92950323
H       3.09187317     -1.44846233     -0.13484418
H       3.74402520      0.06202621     -0.80929230
H       1.73255065      1.31211977      0.19835768
H      -0.19312851      1.97850390     -0.64633199
H      -1.67949122      1.72541037      0.02932859
H      -1.40494379     -1.84430258     -0.00021075
H      -3.46994644     -1.04106709      0.01650955
