16
b3lypvtz=-204476.74411144
O       2.89305763      1.04500910      0.06152637
C       2.22162913      0.04693664     -0.12480747
N       0.88092004     -0.01774593      0.01901708
C       0.07807977      1.15757210      0.37797562
C      -1.34972787      0.60276466      0.47010359
C      -1.33242280     -0.61035242     -0.47205082
C       0.06044616     -1.20321223     -0.24164314
H       2.66322129     -0.91680146     -0.43770314
H       0.17585557      1.92195549     -0.39685030
H       0.43327114      1.59597888      1.31028148
H      -1.56100163      0.27774626      1.49087229
H      -2.09950123      1.34410405      0.19848460
H      -1.42852750     -0.28342521     -1.50946122
H      -2.12888330     -1.32492004     -0.26909713
H       0.05541853     -1.87614057      0.62272903
H       0.43816507     -1.75956930     -1.09947682
