16
b3lypvtz=-256067.16214535
C      -0.35565680     -1.52916673     -0.34329840
C      -0.20634654     -0.16441821      0.31422077
O      -0.49376573     -0.33313057      1.70401472
C       1.22938523      0.36472352      0.18839994
O       1.55312148      0.50447669     -1.19338701
C      -1.20060727      0.81927932     -0.29063894
F      -1.17407573      2.01223945      0.45315192
H      -1.38322026     -1.88275415     -0.25756087
H      -0.07204302     -1.48664964     -1.39355995
H       0.29235033     -2.24556523      0.16184596
H      -0.63652318      0.54341659      2.08060047
H       1.89587085     -0.34560417      0.68739697
H       1.29711822      1.32709770      0.70613090
H       2.41264481      0.92624639     -1.27079909
H      -0.94324834      1.06477316     -1.31956062
H      -2.21510406      0.42513588     -0.22705676
