15
b3lypvtz=-191180.8536374
C      -0.59845334      0.75082235      0.90815995
C       0.56699830     -0.14398103      0.32278165
C      -0.51886693     -1.00939637     -0.34373544
C      -1.60567851     -0.17894812      0.23373536
N      -1.31101621     -0.11112381     -1.21358301
C       1.58448141      0.49792015     -0.56877161
N       2.83946241      0.55272253     -0.39071055
H      -0.63044627      1.78636478      0.57164236
H      -0.61922811      0.71484315      1.99542432
H       1.06366847     -0.68820335      1.12744921
H      -0.47359763     -2.07105498     -0.53964481
H      -2.58535081     -0.46606252      0.58660029
H      -1.99473442     -0.68366389     -1.70258830
H       1.18106068      0.96583962     -1.46772566
H       3.10170095      0.08392149      0.48096624
