11
b3lypvtz=-238707.60271666
C       1.26751054     -0.35512819      0.66375489
O       1.68420893     -1.48168678      0.72233588
C       0.13641007      0.04988180     -0.27741338
C      -0.87591328     -1.06773721     -0.51451613
O      -1.97259423     -0.85957200     -0.96171476
C      -0.51337401      1.37858292      0.09969116
O       0.09957241      2.26947403      0.62564878
H       1.67510144      0.45816086      1.28649514
H       0.61392723      0.22403939     -1.25330422
H      -0.52975943     -2.07955747     -0.24610220
H      -1.58508967      1.46354265     -0.14487517
