17
b3lypvtz=-217709.80617206
C       2.07219449     -0.68329036     -0.03707579
C       1.12856764      0.46522346     -0.38896232
C      -0.27298098      0.31544156      0.18616845
C      -1.17924475      1.50136809     -0.10200585
O      -0.84806913     -0.88466655     -0.42455388
C      -1.75636639     -1.56843612      0.27910836
O      -2.16442503     -1.30259571      1.37670547
H       2.18081030     -0.78755867      1.04468850
H       3.06493636     -0.51258289     -0.45508728
H       1.70277289     -1.63048550     -0.42971173
H       1.53559489      1.40731084     -0.01227941
H       1.05161163      0.57121755     -1.47458043
H      -0.22652810      0.13718934      1.26098085
H      -2.16753393      1.34581760      0.32816303
H      -0.75820987      2.40759057      0.33599733
H      -1.28173822      1.65513040     -1.17736382
H      -2.08139182     -2.43667360     -0.31019144
