15
b3lypvtz=-214509.68674562
C      -2.28019747      0.13027501     -0.37144989
C      -1.00082556     -0.29525771      0.23794413
N      -1.29882441     -0.63720135     -1.15837055
C       0.13781259      0.67315141      0.44809957
N       1.40908723     -0.03042140      0.48533705
C       2.21614017      0.15268795     -0.46040841
O       3.40877433     -0.47244366     -0.53331647
H      -3.19029554     -0.35986180     -0.04676490
H      -2.41088321      1.15759371     -0.68991026
H      -1.04577426     -1.09690132      0.96759168
H      -1.58607473     -1.60625522     -1.23833804
H       0.10019513      1.43183601     -0.34427003
H       0.00052078      1.18284320      1.40618022
H       2.06858635      0.81655770     -1.31351474
H       3.47175863     -1.04660253      0.24443744
