16
b3lypvtz=-202044.51283493
C       1.93384700     -1.20082948      0.49439320
N       1.05355298     -0.73722292     -0.58150376
C      -0.14068114     -0.07699370     -0.16534105
C      -0.01553807      1.34879097      0.14106986
N       0.99189652      2.09771423     -0.08209357
C      -1.31943390     -0.73784420     -0.09844938
N      -2.56622435     -0.22824646      0.21571540
H       2.83124601     -1.64395115      0.06100430
H       2.24045963     -0.35154380      1.10436043
H       1.46127228     -1.93802799      1.15741412
H       0.85401180     -1.48486584     -1.23021022
H      -0.87005898      1.81305798      0.63865172
H       1.71120516      1.54465454     -0.55716719
H      -1.32424081     -1.80530670     -0.29072616
H      -2.70127959      0.76431244      0.11984936
H      -3.35333454     -0.75952393     -0.11553706
