16
b3lypvtz=-256056.94278961
O      -2.52849369      1.44564638     -0.12726999
C      -2.04623680      0.50276098     -1.07139197
C      -0.89665161     -0.31588908     -0.52332872
O       0.15617574      0.60089264     -0.21708277
C       1.22165918      0.07933346      0.55171863
C       2.25211608     -0.67775239     -0.25639037
F       1.75399861     -1.91642372     -0.67083655
H      -1.76315770      1.94638939      0.17645949
H      -2.87903659     -0.15900637     -1.31323989
H      -1.72844624      0.99928335     -1.99656030
H      -1.20715532     -0.83588113      0.39067586
H      -0.56985304     -1.06046478     -1.25506275
H       1.72133532      0.93733235      1.00941307
H       0.84300869     -0.56272535      1.35664083
H       3.14160543     -0.86649634      0.35027594
H       2.52903194     -0.11699938     -1.15092051
