15
b3lypvtz=-214554.97641358
C       2.26970412     -1.04302715     -0.16701790
C       1.27169541     -0.17270474      0.01333715
C       1.50474795      1.29620374      0.20988250
N      -0.05123888     -0.65006474      0.08221364
C      -1.22934021      0.06085167     -0.06749589
N      -2.35502775     -0.74419381      0.06559261
O      -1.30709751      1.24492026     -0.32590364
H       3.29487283     -0.70800243     -0.17017428
H       2.09219205     -2.10166915     -0.30976664
H       1.05299329      1.88145498     -0.58808947
H       1.05333290      1.64277391      1.14090598
H       2.57556133      1.48690857      0.24193710
H      -0.13759943     -1.65280096      0.04202074
H      -2.31534307     -1.51738289      0.71025495
H      -3.20710803     -0.20964128      0.11390516
