16
b3lypvtz=-202026.42725888
C       1.93546566      1.27392226      0.02303656
C       1.30729940     -0.09151513     -0.00279493
C       2.26979918     -1.24531025     -0.02866469
C      -0.01147795     -0.32018118     -0.00382765
N      -1.00520025      0.65765246      0.01837355
N      -2.33004192      0.44567715      0.01970100
N      -2.67918623     -0.75718745     -0.00265481
H       1.21840482      2.09424904      0.04210866
H       2.57439948      1.42146004     -0.85294798
H       2.57998638      1.38562243      0.90020284
H       2.92684925     -1.23097286      0.84705598
H       1.75228739     -2.20384121     -0.04631138
H       2.92177600     -1.19592807     -0.90689778
H      -0.41539831     -1.32009184     -0.02284822
H      -0.77781109      1.63452260      0.03798800
H      -3.69963882     -0.73747300      0.00178585
