18
b3lypvtz=-228512.86744485
N       2.88565236     -0.80423276     -0.43858070
C       2.42508119      0.21111723      0.51868227
C       1.13481513      0.88555127      0.05571086
C      -0.05003683     -0.06184535     -0.00344079
O      -1.20981919      0.68628036     -0.36995393
C      -2.36574008     -0.08444060     -0.53482933
O      -2.86428203     -0.62227501      0.67019972
H       2.33309285     -1.64974755     -0.36174917
H       3.84051247     -1.07208671     -0.23335397
H       3.20414857      0.97221889      0.58666487
H       2.28317282     -0.18279481      1.53607993
H       0.89032616      1.69894551      0.74384951
H       1.29198434      1.32495076     -0.93107761
H      -0.20897618     -0.54448899      0.96676116
H       0.11607612     -0.84874397     -0.74998031
H      -2.17518487     -0.95030350     -1.17680112
H      -3.09242501      0.58011448     -1.00810136
H      -3.13902182      0.11055175      1.23198898
