13
b3lypvtz=-213768.42602523
C       1.84841944     -0.93256825     -0.00000944
N       0.46857500     -0.51274331      0.00013305
C      -0.66812456     -1.32234752      0.00003378
C      -1.72522945     -0.50996091     -0.00003981
O      -1.30284256      0.80432582     -0.00007766
C       0.07365770      0.81550432     -0.00001940
N       0.72148285      1.90488447     -0.00011050
H       2.37014454     -0.56523738     -0.88740223
H       2.37049847     -0.56448136      0.88685588
H       1.89095605     -2.01903700      0.00045839
H      -0.61141292     -2.39556933      0.00013693
H      -2.78391997     -0.68302628     -0.00014313
H       1.72289842      1.74886673     -0.00006685
