21
b3lypvtz=-172615.91487477
C       2.78305697      0.34675885      0.18572717
C       1.66697248     -0.58982389     -0.27995392
C       0.28405189     -0.24289208      0.27136592
C      -0.28182197      1.11809335     -0.18710919
C      -1.82553245      1.00299550     -0.07273704
C      -2.12096277     -0.48851897      0.22903130
C      -0.82527521     -1.22639523     -0.12959230
H       2.61156297      1.37265235     -0.14458092
H       3.75157454      0.03254144     -0.20697025
H       2.85676084      0.35887587      1.27583628
H       1.62003827     -0.58667366     -1.37456111
H       1.91703424     -1.61503755      0.01014915
H       0.34405914     -0.23859902      1.36733455
H       0.00698633      1.29301528     -1.22745135
H       0.11473518      1.95154793      0.39270091
H      -2.22142916      1.64887000      0.71139724
H      -2.30334243      1.31584739     -1.00185922
H      -2.33358721     -0.62105594      1.29239645
H      -2.98807429     -0.86284429     -0.31586356
H      -0.77693191     -1.40604844     -1.20909722
H      -0.73331945     -2.19535291      0.36427912
