16
b3lypvtz=-204440.35004916
C       2.80088962     -0.06184587     -0.22723307
C       1.31502559     -0.08443160     -0.44418977
O       0.54432405     -0.82837934      0.51256877
C       0.35911646      0.60365870      0.44653985
C      -0.94992242      1.12496509     -0.00386966
C      -2.06759199      0.41568640     -0.22350075
N      -2.27633615     -0.92990316      0.00700085
H       3.26405990      0.71703220     -0.83702962
H       3.03648779      0.12852293      0.82000758
H       3.24684619     -1.01791621     -0.50935448
H       0.98785150     -0.23803895     -1.46973300
H       0.80442445      1.12370679      1.29449598
H      -1.00027859      2.19703351     -0.14564015
H      -2.95036954      0.94310621     -0.56670794
H      -2.99397526     -1.36820193     -0.54430817
H      -1.44230559     -1.48375476      0.13311358
