15
b3lypvtz=-214526.09964496
C       0.70277100      1.91262530     -0.13241515
C       0.64310054      0.60696599      0.14985272
C       1.87322179     -0.25995399      0.26065117
O       1.74781425     -1.48101610     -0.45861548
N      -0.52971633     -0.08997840      0.46536333
C      -1.56942077      0.08049758     -0.25324539
N      -2.78299651     -0.43668896      0.07378222
H       1.64692849      2.38559185     -0.36353478
H      -0.17451735      2.54462038     -0.09666585
H       2.73954447      0.25848806     -0.14620955
H       2.06408906     -0.45996058      1.32365692
H       0.92435313     -1.88743645     -0.16437185
H      -1.56159373      0.67580100     -1.17069499
H      -2.82538031     -1.07502640      0.85147813
H      -3.48520872     -0.53084627     -0.63754346
