14
b3lypvtz=-227010.53123155
C       2.49924033     -0.29163939      0.26059067
C       1.43946791     -1.08849376      0.35271619
O       0.12564518     -0.74055305      0.33512480
C      -0.18780770      0.64044100      0.20267625
C      -1.69389598      0.86778577      0.19533119
O      -2.12875271      1.99870984      0.09128420
N      -2.46009311     -0.24067262      0.30920566
H       2.43706319      0.78043345      0.15469670
H       3.48321749     -0.73387221      0.29153242
H       1.53378803     -2.16137946      0.45829803
H       0.23465671      1.21472893      1.03143148
H       0.21763988      1.04158410     -0.72993146
H      -3.45996590     -0.13799405      0.31012898
H      -2.04020333     -1.14907857      0.39181259
