18
b3lypvtz=-202830.47468214
C      -2.32641965     -0.72379004     -0.49361636
C      -1.11936560      0.16929477     -0.21568477
C      -1.34546351      1.08007864      0.99524395
N       0.06855926     -0.68636026     -0.06588610
C       1.36909058     -0.19137945     -0.03176847
N       2.33874968     -0.64076487      0.67128131
N       1.58938777      0.89317738     -0.87753332
H      -2.16255345     -1.33567829     -1.38061487
H      -2.51656554     -1.39296599      0.35025710
H      -3.22411370     -0.12350623     -0.64450227
H      -0.95561247      0.80065318     -1.08972988
H      -2.20653733      1.73238128      0.83610840
H      -1.53412918      0.48716597      1.89370159
H      -0.47200310      1.70669385      1.17423317
H      -0.06629999     -1.42894922      0.60507901
H       2.02579858     -1.34062241      1.33840760
H       2.57395559      1.10594753     -0.93396966
H       1.15753407      0.82127216     -1.78664442
