11
b3lypvtz=-212935.82378336
C      -1.87664142     -0.22913670      0.38595896
N      -0.95732811      0.10422455     -0.41133199
C       0.37868982      0.16465122      0.01925986
N       0.89808820      1.10385578      0.72703474
O      -0.06371636      2.02761631      1.15581785
C       1.25014519     -0.85100225     -0.47560570
C       1.94017992     -1.73525921     -0.90273969
H      -2.90209738     -0.23741065      0.02452335
H      -1.70531364     -0.51548327      1.42569052
H       0.47543054      2.67672137      1.61909947
H       2.56256325     -2.50877717     -1.27799080
