18
b3lypvtz=-205193.20991821
C       3.17185947     -0.12665832      0.09474570
O       1.90190094      0.25646330     -0.38215145
C       0.84490864     -0.48024980      0.21048976
C      -0.46198252     -0.04463119     -0.38283489
C      -1.12940276      1.21904007      0.09218010
C      -1.72374477     -0.11794330      0.43512573
N      -2.93509407     -0.49981462     -0.24778011
H       3.26292533      0.03084976      1.17776207
H       3.91118561      0.48995915     -0.41361990
H       3.38382981     -1.18289790     -0.11770024
H       0.84222406     -0.32008521      1.29906012
H       1.00373910     -1.55592032      0.04119109
H      -0.58675550     -0.27273522     -1.43340498
H      -0.64625360      1.78403712      0.87772882
H      -1.65357004      1.81006820     -0.64495901
H      -1.59674318     -0.43866550      1.46821778
H      -3.04051042     -1.50744545     -0.26708766
H      -3.74877810     -0.11988575      0.22167907
