13
b3lypvtz=-190446.85297572
N       2.48631979     -0.47864946     -0.31622621
N       1.57964493      0.47238391     -0.53353641
C       0.33941824      0.26589213     -0.22090034
C      -0.32647951     -0.87961561      0.40683848
C      -1.63836408     -0.56218915      0.51521781
C      -1.86839926      0.77997787     -0.02784077
C      -0.69245004      1.27414121     -0.47138703
H       3.43501444     -0.14836307     -0.34751376
H       2.28919242     -1.22281603      0.34176594
H       0.12800015     -1.81051902      0.70659811
H      -2.40977826     -1.19451614      0.92972704
H      -2.82791843      1.27249791     -0.05810537
H      -0.49430039      2.23167544     -0.92453747
