17
b3lypvtz=-194379.11349599
C      -0.73417487     -0.95676737     -0.72560090
C      -1.18167764     -0.32041490      0.61008900
C      -0.35796162      0.97808159      0.74554239
C       0.93896581      0.68555305      0.01538438
C       0.70262806     -0.49273060     -0.91056590
C       1.62298553     -0.63231125      0.27002006
O      -1.01927912      2.10965733      0.16955218
H      -0.83408980     -2.04385978     -0.71731664
H      -1.34583604     -0.58914104     -1.55395825
H      -2.24709411     -0.09896870      0.64505737
H      -0.96412180     -0.98887725      1.44441008
H      -0.20947965      1.25401664      1.79016454
H       1.54268046      1.53393578     -0.27713084
H       1.13614034     -0.51746081     -1.90112347
H       1.31485343     -1.23604670      1.11377037
H       2.68419353     -0.67256885      0.06713260
H      -1.04873252      1.98790288     -0.78542698
