15
b3lypvtz=-214525.19807073
C       2.52228927      0.47662160      0.02351538
N       1.27691560      0.75854793     -0.03846314
C       0.31002840     -0.20636967     -0.00479814
O       0.64472242     -1.56087340      0.07975540
C      -1.01265343      0.10374869     -0.00787818
C      -1.52298394      1.50839914      0.00845576
N      -1.96624377     -0.89073838     -0.06182390
H       2.91237546     -0.53609047      0.14077068
H       3.24121036      1.28759314     -0.01830512
H       1.22415466     -1.78859996     -0.65755545
H      -0.69906873      2.21327415     -0.01340099
H      -2.11943142      1.69052912      0.90819862
H      -2.17201591      1.68389967     -0.85340448
H      -2.87074028     -0.67066662      0.32002278
H      -1.63693070     -1.81998196      0.14518577
