18
b3lypvtz=-181886.5766017
C      -3.23387236      0.40858922     -0.41154820
C      -2.28819113     -0.37293923      0.09328729
C      -0.95092368      0.10448487      0.57319223
N       0.12966614     -0.62808616     -0.08714365
C       1.44645117     -0.31026720      0.39253036
C       2.61048447     -0.34769009     -0.54197597
C       2.16355157      0.97699136      0.03853631
H      -3.09115561      1.47847571     -0.51281110
H      -4.18711876      0.01132499     -0.73477195
H      -2.45376472     -1.44294570      0.17316367
H      -0.87564126      1.19548553      0.45083012
H      -0.86300613     -0.09495828      1.64730505
H       0.07201455     -0.50629562     -1.09084860
H       1.62251256     -0.68811699      1.39379114
H       3.53822435     -0.78141255     -0.19589654
H       2.40652923     -0.52804805     -1.58984289
H       2.78933114      1.45287575      0.78164661
H       1.65686349      1.66266046     -0.62790488
