15
b3lypvtz=-212090.97454576
C      -0.99978290     -1.54442584      0.46625756
C      -0.02646592     -0.44975040      0.16744053
C       1.29577654     -0.55694360      0.36522918
N       2.16660578      0.54144569      0.05444259
N      -0.53781595      0.73883443     -0.34288702
N      -1.84284566      0.92323128     -0.57334142
N      -2.22956138      2.01339324     -1.03462887
H      -0.47056274     -2.40940703      0.86081123
H      -1.54625968     -1.83859488     -0.43076861
H      -1.74437382     -1.21850978      1.19376838
H       1.69658825     -1.48257930      0.76396968
H       2.86234130      0.28060689     -0.63562600
H       2.67408785      0.85676137      0.87384453
H       0.13360440      1.48036202     -0.54409392
H      -1.43133606      2.66557590     -1.18441784
