15
b3lypvtz=-214503.28882845
C       2.27589719      0.29582051     -0.26113571
C       1.16082774     -0.20077348      0.56262855
O       2.05353369      0.79544428      1.05775344
C      -0.24947457      0.23454630      0.29156203
N      -0.65932140      1.42458135      0.43385592
C      -1.19054049     -0.86195372     -0.17775639
N      -2.55198584     -0.46833104     -0.49051405
H       2.06210311      0.99650101     -1.06145834
H       3.16533080     -0.31319448     -0.38462063
H       1.27631902     -1.17765920      1.02545077
H       0.10081626      2.01621181      0.77757125
H      -0.74681354     -1.34548500     -1.05529974
H      -1.21308977     -1.63987765      0.59408143
H      -2.53613057      0.22989182     -1.22600000
H      -2.94747163      0.01427748      0.30942457
