11
b3lypvtz=-233856.10244485
N      -1.64963826      0.77557932     -1.56291255
C      -1.00477294      0.63772138     -0.48333803
C      -0.17804348     -0.56398090     -0.10413028
N      -0.38585953     -1.75490682     -0.48226958
N       0.92239272     -0.39494279      0.79335335
N       1.23438723      0.78535677      0.98045857
O       2.28231185      0.90561705      1.82646872
H      -1.51516978     -0.02162530     -2.19131864
H      -1.04329749      1.44372957      0.24461459
H      -1.20047792     -1.80469566     -1.09517761
H       2.53816759     -0.00785261      2.07415146
