16
b3lypvtz=-225369.30810794
N      -1.92567812     -1.01651964     -0.15129787
C      -1.31651618      0.21795531      0.02243912
N      -2.22999457      1.26679020      0.09580768
N      -0.06533028      0.44586589      0.11297721
C       0.88577146     -0.62782422     -0.10693717
C       2.27922277     -0.01799447     -0.21529915
O       2.58288759      0.76232541      0.92740766
H      -2.78461945     -1.00619513     -0.67856549
H      -1.31289488     -1.77277871     -0.40593986
H      -3.05027565      1.06946823      0.65067495
H      -1.78104137      2.12798134      0.36863280
H       0.67649396     -1.20106707     -1.02437104
H       0.87895673     -1.33377561      0.73445624
H       3.03554340     -0.80200293     -0.28178616
H       2.33399446      0.58852471     -1.12890403
H       1.79358014      1.29934669      1.08080511
