13
b3lypvtz=-190474.16967421
C       2.39949571     -0.54918003      0.00089088
C       1.12888687     -0.12455573     -0.00019499
C       0.64696997      1.25859218     -0.00002429
C      -0.69286818      1.26126234     -0.00005656
C      -1.18131851     -0.12903637     -0.00011087
N      -2.40798021     -0.47972264      0.00104006
N      -0.02361313     -0.90697905     -0.00182857
H       2.65721616     -1.59885562      0.00064370
H       3.20638130      0.16724385      0.00212075
H       1.30903215      2.10975780     -0.00002252
H      -1.36392704      2.10388019     -0.00001777
H      -2.51675039     -1.49312249      0.00070160
H      -0.02365771     -1.91104644      0.00306156
