17
b3lypvtz=-191954.71439112
C       2.97943499      0.01032387     -0.11610857
N       1.85082552      0.45254213      0.22821941
C       0.76060301     -0.48864686      0.40170397
C      -0.39563041     -0.15461701     -0.54533502
C      -1.19227412      1.11841035     -0.17063159
C      -2.27037599      0.16642811      0.39772914
N      -1.62462794     -0.95640515     -0.32723813
H       3.80379141      0.70416967     -0.26643483
H       3.18840807     -1.05569635     -0.27498958
H       1.07866150     -1.53035073      0.23586043
H       0.40811056     -0.40353499      1.43453401
H      -0.03022574     -0.20230502     -1.57456806
H      -1.53283147      1.67678158     -1.03977793
H      -0.70477493      1.79758532      0.52417350
H      -3.30333977      0.35056389      0.09799229
H      -2.23648862      0.08534724      1.48905179
H      -1.50253306     -1.81418204      0.19825718
