14
b3lypvtz=-226997.15748609
O      -1.83643585     -1.24761467     -0.47853020
C      -1.05350149     -0.48718184      0.45597980
C      -0.83066922      0.97828229     -0.00675236
N       0.55991768      1.01691810     -0.51431118
C       1.18357009     -0.11846225      0.01696660
O       2.52464144     -0.23242292     -0.11319409
C       0.35054264     -0.99579342      0.59217968
H      -1.24365327     -1.52968193     -1.18423145
H      -1.64211315     -0.51858544      1.37320649
H      -0.94342508      1.66310219      0.83724356
H      -1.54732431      1.24798609     -0.78068540
H       1.04285783      1.88057946     -0.30152025
H       2.81428632      0.31510139     -0.85259887
H       0.62120638     -1.97222704      0.95624768
