16
b3lypvtz=-204432.68513388
C      -1.34373028      1.59224844      0.19301562
C      -1.47393853      0.25804725     -0.50174806
C      -1.77800477     -0.98771195      0.25242479
N      -0.47892293     -0.81789607     -0.38860284
C       0.68786300     -0.65266833      0.45994849
C       1.86745259     -0.14642980     -0.34557383
O       2.77356838      0.49548213      0.11793935
H      -2.30673916      2.10587496      0.17554779
H      -1.04376510      1.49885834      1.23568053
H      -0.61977212      2.23458167     -0.31306332
H      -1.86929594      0.33058598     -1.50982374
H      -1.82142795     -0.90225981      1.33468223
H      -2.41641609     -1.75669448     -0.16627075
H       0.97077651     -1.64473524      0.83294619
H       0.55945804     -0.00843839      1.33672618
H       1.84266936     -0.43130269     -1.41697863
