14
b3lypvtz=-201248.49116998
C      -3.32314382      0.74482792     -0.03839278
C      -2.35842959      0.03462962      0.01671194
C      -1.18380359     -0.82923311      0.06109322
N       0.04981117     -0.03504843      0.06876959
N       1.16462273     -0.90166506     -0.04745423
C       2.28680604     -0.29281957     -0.04973866
N       2.46599814      1.07465331     -0.00975757
H      -4.18033283      1.36912253     -0.07930992
H      -1.20909394     -1.53191177     -0.78183650
H      -1.19890625     -1.43014120      0.97230979
H       0.03246520      0.61295364     -0.71787121
H       3.18225726     -0.89673591     -0.13848614
H       1.71760152      1.57570173      0.45121322
H       3.38625897      1.39067831      0.24810125
