13
b3lypvtz=-232189.39736005
C       2.09798270      0.26736829     -0.28764570
N       1.52187716     -1.05667294     -0.12911310
N       0.24651068     -1.22596244      0.26266748
N      -0.44538921     -0.18732330      0.19520826
N      -1.74145164     -0.45992866      0.55636777
N      -2.74685484      0.40874419      0.44599360
N      -2.43891278      1.57215381      0.10418439
H       3.15720425      0.14679473     -0.50455761
H       1.61695202      0.78742087     -1.11481786
H       1.96720201      0.87993253      0.60985123
H       2.10388192     -1.78853296      0.24099223
H      -2.01155703     -1.42147242      0.71001531
H      -3.32744522      2.07747831      0.09450859
