13
b3lypvtz=-242075.73017422
F      -2.40699339      0.35819060     -0.49813148
C      -1.68059527     -0.46651187      0.35224259
C      -0.21313360     -0.27756907      0.13914450
N       0.60456294     -1.20589379     -0.13114530
C       1.93895413     -0.58450047     -0.17276894
C       1.66816762      0.92824583     -0.00790153
O       0.24874896      0.98987294      0.29599561
H      -1.93682568     -1.50372940      0.14777212
H      -1.94774571     -0.20525938      1.37879917
H       2.43041688     -0.82366610     -1.11573132
H       2.55375223     -0.99426930      0.63115599
H       2.20901856      1.39118651      0.81494831
H       1.84080933      1.49947150     -0.91993674
