16
b3lypvtz=-204438.17309956
C       2.21455630     -1.26415999     -0.06490120
C       1.84864258      0.19731121      0.14644253
N       0.55658222      0.51073982     -0.46582908
C      -0.15583855      1.65589622      0.03789335
C      -0.62734710      0.26782950      0.36487260
C      -1.80943630     -0.29923820     -0.32908827
O      -2.67334493     -0.93710143      0.21841999
H       1.49514616     -1.92519477      0.42111679
H       2.23128847     -1.50480371     -1.12794650
H       3.19990161     -1.47483641      0.35296586
H       2.58992941      0.84324867     -0.32935442
H       1.85048338      0.43965051      1.22007337
H       0.26928816      2.21318807      0.86756166
H      -0.68629257      2.25234390     -0.69488094
H      -0.48648672     -0.06698878      1.38792366
H      -1.84126111     -0.08456963     -1.41700140
