15
b3lypvtz=-214529.67846327
C      -2.83482522     -0.69310966     -0.14165729
C      -1.77279953      0.03084477      0.21544728
N      -0.46161530     -0.39346773      0.03790195
C       0.48752278      0.45765431     -0.01950633
N       0.39880964      1.83042836     -0.01629855
O       1.77878749      0.07448162     -0.06918116
C       2.03878292     -1.32954207      0.04937083
H      -2.71812218     -1.65483673     -0.62277253
H      -3.83560661     -0.33295185      0.04689902
H      -1.93396697      0.98685365      0.71753838
H      -0.44460022      2.22419063     -0.39632080
H       1.24413998      2.31960211     -0.25944278
H       1.57907986     -1.87611532     -0.77225282
H       3.12084881     -1.42389023      0.01574514
H       1.64841655     -1.71505486      0.98995567
