13
b3lypvtz=-216161.38796595
C      -0.16224167      1.18067300      0.15937176
C      -1.23335730      0.09686341     -0.08665236
C      -0.52057917     -1.24044140      0.13057052
O      -1.02862570     -2.28375268      0.45174355
C       0.95439395     -0.99753219     -0.04505570
C       1.15950226      0.46084770     -0.03273234
O       1.22201686     -0.26304237     -1.25869921
H      -0.21969239      1.55975590      1.18202246
H      -0.25240560      2.03348227     -0.51412715
H      -2.09276806      0.16772649      0.57663586
H      -1.60589554      0.12239377     -1.11205482
H       1.68649965     -1.73688692      0.25067829
H       2.09315271      0.89991303      0.29829915
