14
b3lypvtz=-201267.87495645636
C       0.34316501     -0.82878901      0.27615747
C       1.47510729      0.19200101     -0.07120527
N       2.75037048     -0.02084834      0.02269083
C       0.80474646      1.35387822     -0.49408058
N      -0.58405027      1.11340081     -0.42765892
C      -0.92184977     -0.08018157     -0.00758870
N      -2.19371499     -0.55023690      0.14184748
H       0.39705792     -1.13538989      1.32338670
H       0.41974698     -1.72722816     -0.34069878
H       2.93647651     -0.96217100      0.36048566
H       1.17294656      2.30414682     -0.82718774
H      -1.25699016      1.81836555     -0.68776712
H      -3.00140623      0.00645681     -0.06788992
H      -2.34160579     -1.48340436      0.47217945
