15
b3lypvtz=-214529.34388777
C       2.29608592     -0.58656675      0.06774244
N       1.46756071      0.60124729      0.10797837
C       0.20749625      0.60293013      0.11198529
O      -0.43966897      1.80821575      0.15234293
C      -0.78382285     -0.53035332      0.07892570
C      -2.24525588     -0.16041794      0.09392739
N      -0.32809833     -1.71731793      0.04065846
H       3.33934422     -0.27224679      0.07446443
H       2.11515659     -1.24117839      0.92255373
H       2.10985754     -1.18577724     -0.82570832
H       0.26267539      2.47403372      0.17129202
H      -2.48790093      0.41760855      0.98647128
H      -2.86206724     -1.05819693      0.06675588
H      -2.49162613      0.47319736     -0.75898990
H      -1.09163230     -2.39380951      0.02126930
