17
b3lypvtz=-171059.88145842
C       1.37710991     -0.76423169      0.12808327
C       1.34984724      0.66606683     -0.47352010
C       0.03396238      1.25163640      0.03331342
C      -1.26770314      0.56354076     -0.33863801
C      -1.01995983     -0.88844120     -0.73807771
C      -0.08355541     -1.02890743      0.50526717
C      -0.62717695      0.33388201      1.01798188
H       2.00360829     -0.78944748      1.02312209
H       1.76797465     -1.50756870     -0.56967807
H       2.19865743      1.26200216     -0.13514274
H       1.39043834      0.64696489     -1.56469374
H      -0.04420008      2.31863794      0.19401869
H      -2.14959577      1.14375438     -0.57542578
H      -0.58074639     -1.08929203     -1.71950859
H      -1.92351312     -1.48756844     -0.62766544
H      -0.24339890     -1.90983270      1.12216907
H      -0.96290567      0.59559731      2.01043560
