17
b3lypvtz=-194385.46113082
C       1.39837827      0.95102099      1.04285029
C       1.08101398      0.10094093      0.07003699
C       2.06033869     -0.91519260     -0.45043473
C      -0.30331908      0.07687131     -0.57465079
C      -1.02360112      1.41883014     -0.66445451
C      -1.14576968     -0.96666001      0.14865506
O      -2.25123594     -0.77410471      0.58240468
H       2.38279849      0.94001675      1.49279339
H       0.70238105      1.68724892      1.41951103
H       2.27060369     -0.73966236     -1.50979911
H       1.66149846     -1.93117633     -0.37854785
H       3.00162638     -0.88322496      0.09658120
H      -0.16980668     -0.32404373     -1.58907803
H      -1.25700829      1.81353184      0.32306078
H      -0.40974933      2.14659013     -1.19410317
H      -1.96982847      1.30496394     -1.19191866
H      -0.66244041     -1.95806124      0.26682944
