15
b3lypvtz=-214506.92959449
C      -1.21507670      0.36615311     -0.42866336
C       0.03643148      0.25937639      0.40666849
C       1.23641517     -0.44190173     -0.14298009
N       0.46043618     -1.01163051      0.98286209
C       2.59546689      0.04182486      0.20407539
O       3.49557759      0.15092366     -0.59000230
N      -2.37487721      0.60756319      0.42930493
H      -1.11647336      1.22025622     -1.10308994
H      -1.29542498     -0.53180814     -1.06128815
H       0.19695588      1.10245603      1.07026662
H       1.14718724     -0.88788701     -1.12692316
H      -0.11128456     -1.77623186      0.63506894
H       2.72176865      0.30921488      1.27317604
H      -3.20134621      0.79196663     -0.12523705
H      -2.57575605     -0.20027573      1.00677970
