14
b3lypvtz=-180357.44452277
C      -1.26252949      0.66269961     -0.46954338
C      -1.26251759     -0.66272731     -0.46953818
C      -0.00067280     -1.08496558      0.30996826
C       1.22050904     -0.66405063     -0.55047745
C       1.22049846      0.66407695     -0.55047305
C      -0.00069625      1.08496540      0.30996973
N      -0.02372324     -0.00000085      1.33813841
H      -1.95322206      1.34438780     -0.93951594
H      -1.95318611     -1.34442824     -0.93952585
H       0.00692297     -2.09239695      0.71524674
H       1.86482621     -1.33895501     -1.09293330
H       1.86479223      1.33899471     -1.09294250
H       0.00687534      2.09239748      0.71524801
H       0.87484728      0.00000860      1.81769551
