12
b3lypvtz=-223804.89702595
C      -3.20093664      0.20453989      0.11592048
C      -1.88220619      0.37469284      0.06822602
N      -0.98834349     -0.68268219     -0.10391744
N       0.33005229     -0.61877586     -0.17298184
N       0.81589354      0.54458116     -0.11306688
C       2.23557930      0.53680828     -0.08598571
O       2.94353369     -0.33534636      0.33991168
H      -3.66429917     -0.76975837      0.02241524
H      -3.85263181      1.05322310      0.25386208
H      -1.39929737      1.33450604      0.15868494
H      -1.33584132     -1.62326566     -0.20187579
H       2.62572917      1.49540213     -0.46232076
