17
b3lypvtz=-191963.9596388
C       3.01095762     -0.17041407      0.34398203
N       1.62229611      0.20062462      0.17656920
C       0.79765931     -0.68618719     -0.18612211
C      -0.64679904     -0.41877278     -0.35332670
C      -1.14634441      1.00149970     -0.57799816
C      -1.40700491      0.31978641      0.72778636
N      -2.69749625     -0.17406884      1.14271240
H       3.31828130      0.02813699      1.37335874
H       3.63422588      0.45639569     -0.29765786
H       3.21467671     -1.22533991      0.11321705
H       1.11903425     -1.71985109     -0.38135130
H      -1.19796057     -1.21012018     -0.84620166
H      -0.38292299      1.76638484     -0.61740785
H      -1.97782738      1.12344710     -1.26030797
H      -0.79263168      0.63928809      1.55982667
H      -3.22988757     -0.50590467      0.34645114
H      -3.23825637      0.57509529      1.56178156
