14
b3lypvtz=-224570.67095213
C      -2.37774764      0.00909456     -0.64749925
N      -1.09355020     -0.53558015     -0.26192486
C      -0.16144336      0.26747963      0.03796482
C       1.16600572     -0.25640674      0.42636626
N       2.21492870      0.46671338      0.60841245
O       1.95673756      1.84857806      0.42460185
N       1.24654164     -1.61590757      0.62793649
H      -3.14423564     -0.37684661      0.02770421
H      -2.63027985     -0.34850922     -1.64782501
H      -2.41122008      1.10521779     -0.63913977
H      -0.27122018      1.35122347      0.01576511
H       2.81359901      2.23341766      0.62648285
H       0.51987649     -2.13898838      0.16481108
H       2.17200785     -2.00948587      0.58753405
