11
b3lypvtz=-217984.71394356
C      -1.71030564      0.43423112      0.25737077
C      -0.26906101      0.22918860      0.14249961
C       0.91627916      0.06645537      0.06687360
C       2.35233147     -0.13574884     -0.04887371
F       2.92975151     -0.37441972      1.19589263
C      -2.49635170     -0.51381820     -0.53949652
N      -3.12743580     -1.24512383     -1.16193590
H      -1.97846206      1.44823688     -0.05299411
H      -2.01490064      0.33868458      1.30376046
H       2.83293042      0.74777232     -0.47500198
H       2.56522429     -0.99545827     -0.68809486
