15
b3lypvtz=-216899.18354137
C       1.56262762      0.00000004      0.00001492
O       0.80675770      1.20762347     -0.00006019
C      -0.60670169      1.03904617     -0.00001005
C      -1.01653946      0.00000027     -1.07362396
C      -0.60670171     -1.03904602     -0.00001042
C      -1.01647841     -0.00000011      1.07362739
O       0.80675766     -1.20762338     -0.00006063
H       2.19567992      0.00000019     -0.89220982
H       2.19553095     -0.00000014      0.89234750
H      -1.03263981      2.03920156      0.00000060
H      -2.09070579      0.00000032     -1.25562811
H      -0.47055488      0.00000044     -2.01578297
H      -1.03263988     -2.03920139     -0.00000013
H      -2.09063508     -0.00000013      1.25568612
H      -0.47045114     -0.00000029      2.01576175
