14
b3lypvtz=-226979.15106409
C       2.39103308      0.13912965     -0.06171419
N       1.13574560      0.70320276     -0.52879022
C       0.09429140     -0.01426595     -0.50740894
O      -0.01108835     -1.30828128     -0.09905099
C      -1.20541588      0.56108654     -0.94667618
C      -2.48715884      0.12019065     -0.37702728
O      -2.09212130     -0.28592328     -1.68388278
H       2.73718908     -0.68250012     -0.70199406
H       3.15879561      0.91012566     -0.08167274
H       2.32980387     -0.23580353      0.96902119
H       0.85642122     -1.63947760      0.15940617
H      -1.10676338      1.57188149     -1.32238896
H      -2.49173533     -0.66716643      0.36774666
H      -3.30889677      0.82790145     -0.33546770
