14
b3lypvtz=-203670.84452494
C      -2.23730319      0.58121187      0.20554515
C      -1.08241982     -0.26517476     -0.25122749
N      -1.09722946     -1.33103239     -0.93515073
O       0.08477591      0.27002927      0.17778357
C       1.27762640     -0.44531042     -0.19394917
C       2.43043061      0.25666734      0.34783481
C       3.40421211      0.80684360      0.77795081
H      -2.24304785      0.64825301      1.29426952
H      -3.18256846      0.16383992     -0.13388442
H      -2.13174118      1.59581186     -0.18076409
H      -2.04640168     -1.59713108     -1.17533428
H       1.33571390     -0.51472565     -1.28186941
H       1.22370700     -1.46642492      0.18832408
H       4.26424570      1.29714232      1.16047168
