12
b3lypvtz=-179640.89338099
N      -2.94400972     -0.01142364      0.00002143
C      -1.78994942      0.03721174     -0.00010768
C      -0.37748216      0.06255242     -0.00005141
C       0.41924001      1.15715809     -0.00000727
C       1.81271120      0.73817255      0.00006489
C       1.87311448     -0.60612018      0.00006843
C       0.48753110     -1.17303809     -0.00000416
H       0.07644122      2.18091875     -0.00004696
H       2.65222859      1.41686860      0.00011952
H       2.76626818     -1.21169510      0.00012154
H       0.29597726     -1.80254555      0.87546127
H       0.29606626     -1.80253959     -0.87549260
