16
b3lypvtz=-204435.85320331
C      -2.45478059     -0.16332569      0.97545009
C      -1.36604209      0.14697021      0.27786177
C      -0.71131507     -0.38328868     -0.99066283
C       0.51947762      0.47186947     -0.57105243
N      -0.34017108      1.08435500      0.45948946
C       1.68292125     -0.33173270     -0.03110510
O       2.55829996      0.57657935      0.63450053
H      -3.12724510     -0.93146243      0.62348305
H      -2.70132081      0.34261584      1.89911938
H      -1.18686981     -0.05418294     -1.91301093
H      -0.55174541     -1.45989692     -1.03031357
H       0.88276593      1.19296695     -1.30586837
H       0.01922614      1.36165214      1.36188547
H       2.19213151     -0.83701459     -0.86184473
H       1.31157589     -1.09678509      0.66182437
H       3.27309166      0.08068010      1.04273503
