16
b3lypvtz=-204417.07526469
N      -2.62197671      0.28635422     -0.10387346
C      -1.52046643     -0.58749559      0.30804104
C      -0.23682195     -0.21441228     -0.41507336
C       0.34717630      1.18871322     -0.02515788
C       1.57027782      0.47108223      0.54845391
O       2.15753053     -0.29409898     -0.51579693
C       1.03309570     -0.84603617      0.17757877
H      -3.46267029      0.07178565      0.41857988
H      -2.84186437      0.13838293     -1.08246512
H      -1.71896142     -1.65749173      0.14435554
H      -1.37788446     -0.45778059      1.38523325
H      -0.33878088     -0.38878600     -1.48894833
H      -0.27060843      1.68211694      0.72350246
H       0.56015069      1.88285191     -0.83688952
H       2.22556668      0.76431967      1.35687961
H       1.16059224     -1.82082642      0.63006115
