19
b3lypvtz=-218455.90079872
C       2.54299889     -0.82125879     -0.04859670
C       1.29516167     -0.03495012      0.32182336
O       1.45635005      1.27473531     -0.21311718
C       0.01543441     -0.70829611     -0.19033801
C      -1.27918685     -0.10642913      0.34688117
C      -2.51970944     -0.84815159     -0.13339766
O      -1.32060698      1.27195659     -0.07937773
H       2.61072358     -0.93776531     -1.13175482
H       3.43090911     -0.28705368      0.28956393
H       2.53694162     -1.81064286      0.41195123
H       1.23332938      0.02167379      1.42035531
H       0.58960791      1.70154447     -0.18535782
H       0.03222947     -1.76424773      0.09267598
H       0.00726175     -0.66236517     -1.28359857
H      -1.24471401     -0.13232077      1.44378202
H      -2.50961529     -1.88549067      0.20592019
H      -2.57032407     -0.83852758     -1.22308284
H      -3.42814636     -0.38131836      0.25489446
H      -2.08094984      1.70192272      0.32338768
