9
b3lypvtz=-212205.81993032
C       2.66940412     -0.06244229     -0.02945281
C       1.49016615     -0.01591727      0.17946400
C       0.09237334      0.03541361      0.41419365
N      -0.85469406     -0.23599264     -0.55808946
C      -1.95275618     -0.06906869      0.09489061
O      -1.78680583      0.27809979      1.37386025
N      -0.40733955      0.34785623      1.58612771
H       3.71441182     -0.10359274     -0.21324900
H      -2.96475979     -0.17435601     -0.26167582
