14
b3lypvtz=-180309.79581452
C      -2.56091342      1.86636670     -0.14784062
C      -1.55759099      0.72540684     -0.11906014
C      -2.18539011     -0.35542864      0.36056646
C      -2.82571686     -1.35797025     -0.58076181
C      -4.05022765     -0.42749387     -0.31341080
C      -3.83577287      1.04671069      0.07812873
N      -3.49081937     -0.02428239      1.01223241
H      -2.47524399      2.63154662      0.63258531
H      -2.50846869      2.37903320     -1.11128872
H      -0.72534082      0.66899596     -0.80633396
H      -3.05102131     -2.34251540     -0.16638086
H      -2.39677063     -1.44489214     -1.57656023
H      -5.07305208     -0.79010089     -0.37321522
H      -4.76517124      1.56992359      0.28763942
