13
b3lypvtz=-190455.76047898
C       2.16706878     -0.16343637      0.02197975
C       0.82059082     -0.10947217      0.01440246
C       0.02573479      1.09802902     -0.14285995
C      -1.31723363      1.01698434     -0.13254784
N      -1.94928026     -0.18807899      0.02402205
N      -1.28753731     -1.36123324      0.17653024
C       0.00012118     -1.31078118      0.17021706
H       2.76890061      0.72715622     -0.09356180
H       2.68825366     -1.10276493      0.14431806
H       0.50662706      2.05733452     -0.26757680
H      -1.96748311      1.87320973     -0.24401171
H      -2.94869884     -0.26840085      0.03440167
H       0.49293628     -2.26854608      0.29468681
