15
b3lypvtz=-214493.05992829
C       3.33640141     -0.63868063      0.04879035
N       2.22378663      0.20441918     -0.34224570
C       1.16320257      0.15463877      0.33761966
C      -0.04150092      0.99859266      0.00616493
C      -1.22357616      0.15651390     -0.37123211
N      -2.25442105      0.14277792      0.36747223
O      -3.24653603     -0.70807287     -0.14636774
H       3.60773145     -1.28257792     -0.79008812
H       3.12959873     -1.26452204      0.92694111
H       4.20400654     -0.00973054      0.25779864
H       1.05713005     -0.51226074      1.20587338
H      -0.31533093      1.60447383      0.87287497
H       0.22719508      1.66096286     -0.81859414
H      -1.17950659     -0.44715966     -1.27731334
H      -3.95990978     -0.61154471      0.49252985
