13
b3lypvtz=-216166.51168121
C       3.43947772     -0.34256065     -0.00012534
C       2.32422015      0.09917510      0.00003108
C       0.96119694      0.61661290     -0.00003792
C      -0.08522346     -0.50392492      0.00005071
C      -1.49672042      0.02812077     -0.00000606
O      -1.81483568      1.18934891     -0.00010047
O      -2.40252766     -0.97780183      0.00000138
H       4.43000627     -0.72328925      0.00020556
H       0.80909015      1.25724192      0.87092872
H       0.80912352      1.25707839     -0.87113028
H       0.03544485     -1.15181796      0.87045747
H       0.03544969     -1.15196026     -0.87024891
H      -3.27963507     -0.56608512     -0.00005794
