18
b3lypvtz=-205198.27095782
C       3.21594425      0.53307120      0.12097564
C       2.08667834      0.03295348     -0.38714859
N       0.86743662     -0.08840796      0.25930702
C      -0.04167278     -1.16683790     -0.10392354
C      -1.48123643     -0.91018356      0.32971801
O      -2.15718793      0.06908163     -0.43382688
C      -2.02667351      1.40473385      0.02414977
H       3.29200333      0.85286950      1.15290104
H       4.08724456      0.65379879     -0.50367419
H       2.05336508     -0.28327022     -1.42458891
H       0.91528085      0.08386269      1.25400402
H       0.27447067     -2.13393654      0.31781824
H      -0.02411382     -1.27062284     -1.19020212
H      -2.04221818     -1.83848169      0.19793697
H      -1.51693052     -0.65655292      1.39909990
H      -1.00664151      1.77900139     -0.08442633
H      -2.70030842      2.01046414     -0.58034276
H      -2.32704159      1.49118795      1.07629567
