13
b3lypvtz=-169536.10830412
C       3.21480256      0.13704398     -0.07009704
C       2.01504367      0.06246951     -0.03530655
C       0.59796663      0.00992717     -0.00727128
C      -0.17438494     -1.03158532      0.37838487
C      -1.61729047     -0.65387743      0.24918757
C      -1.56071809      0.75485622     -0.26647389
C      -0.28101190      1.12558221     -0.40990582
H       4.27410419      0.19453976     -0.09776332
H       0.17981441     -1.98909639      0.72643937
H      -2.15601634     -1.32170135     -0.43394375
H      -2.14558104     -0.72100436      1.20798121
H      -2.43226395      1.35427949     -0.48051591
H       0.08553525      2.07856652     -0.76071545
