14
b3lypvtz=-203690.76242865
C      -1.06815592      0.24377931     -1.28172363
C       0.21218446      1.01446386     -1.46130391
C       1.02957784      0.80621989     -0.42435172
C       0.40693788     -0.09918154      0.52217055
C       0.91265909     -0.61052653      1.65179020
O       0.26186096     -1.54713045      2.41348186
N      -0.86952995     -0.47223905     -0.00146081
H      -1.94641360      0.89797336     -1.24161767
H      -1.23881678     -0.46160301     -2.10372591
H       0.42145989      1.61735853     -2.33200027
H       2.02275308      1.21097237     -0.30001470
H       1.87000421     -0.31688836      2.05343571
H      -0.39503483     -1.97864414      1.85030968
H      -1.61948634     -0.30455424      0.65501061
