16
b3lypvtz=-181142.53657283
C       0.88757471     -1.22054284     -0.00482513
C       1.59086688     -0.05983294      0.65247605
N       1.29698676      1.16909482      0.58820165
C       0.15240947      1.60872168     -0.20401273
C      -0.88168925      0.56516366     -0.57904986
C      -1.49961269     -0.30338324      0.48390353
C      -0.50589581     -0.88853598     -0.48662459
H       1.50783404     -1.54077014     -0.85099486
H       0.88074116     -2.06791811      0.68883735
H       2.47491840     -0.31723936      1.23924105
H       0.56218057      2.05725417     -1.11557131
H      -0.31717496      2.43181161      0.34222237
H      -1.52866117      0.85628045     -1.39753726
H      -1.17743441     -0.15608646      1.50712557
H      -2.53958133     -0.57919339      0.37804173
H      -0.90346236     -1.55492394     -1.24133355
