15
b3lypvtz=-214496.65367505
C      -1.69678845     -0.72884189      1.10998839
C      -1.35173842      0.54566909      0.32823994
C      -0.21308396      0.34746783     -0.64310611
N      -0.23573934      0.28972106     -1.90030964
O       0.95251683      0.23085091      0.07913381
N       2.07761362     -0.17010941     -0.67519002
C       3.12717017     -0.03064269      0.01678026
H      -2.52435519     -0.54263721      1.79524118
H      -1.99101324     -1.53359036      0.43501883
H      -0.84295223     -1.07147687      1.69322520
H      -1.07843772      1.34021729      1.02644662
H      -2.21880829      0.89161719     -0.23480122
H      -1.18838235      0.39911833     -2.23659015
H       4.05239066     -0.33649547     -0.45401277
H       3.13160792      0.36923220      1.02793568
