16
b3lypvtz=-227765.94532772
C      -2.62463839     -0.06659557      0.29422558
C      -1.18081993      0.16524832     -0.05396761
N      -0.62767167      1.26840518     -0.36012729
O      -0.49478988     -0.98632004     -0.00107891
C       0.87476912     -1.03832061     -0.47888515
C       1.90368604     -0.36294052      0.42194385
O       2.12021331      1.00047689      0.14242953
H      -3.17835510      0.86895385      0.31904795
H      -3.08007388     -0.73678052     -0.43600371
H      -2.69565359     -0.55253188      1.26780522
H      -1.29452690      2.03157881     -0.36372636
H       1.06974172     -2.10820917     -0.53121986
H       0.91854945     -0.60977096     -1.48159395
H       2.85884016     -0.87318878      0.26974484
H       1.61190484     -0.53187995      1.46882202
H       1.24304671      1.38288594     -0.04832516
