17
b3lypvtz=-217668.9214951
C      -3.37735829      0.13102300      0.03226732
C      -2.12322683      0.54820208     -0.07028326
C      -0.93679573     -0.20952376      0.42888520
O       0.00838055     -0.33886351     -0.63813939
C       1.21432034     -0.94708889     -0.25584037
O       2.01178328     -0.15529872      0.58281605
C       2.57734729      0.97627905     -0.06552371
H      -3.62246979     -0.82809994      0.47345776
H      -4.20596555      0.73310162     -0.31628344
H      -1.90338465      1.50810704     -0.52654426
H      -1.23321425     -1.20269087      0.78779800
H      -0.47035230      0.32521820      1.26389950
H       1.73477622     -1.16956527     -1.19302891
H       1.02751272     -1.86828987      0.30514477
H       1.80657771      1.65851716     -0.43171761
H       3.20676984      0.66913862     -0.90881796
H       3.19313746      1.48857807      0.67071729
