15
b3lypvtz=-193571.01101865
C       1.16908820     -0.22901837      0.48325536
C       0.45487929     -1.40099128      1.05587987
O      -0.91456116     -1.25116828      1.46669629
C      -0.76785128     -2.53950486      2.13621635
C      -0.68680617     -3.54791345      0.96683793
C       0.64631750     -2.87504943      0.65553250
C       0.79568627     -2.40160355      2.10289077
H       1.15599913      0.61131059      1.17898753
H       0.69870504      0.08792621     -0.44979008
H       2.20777811     -0.48529272      0.27041434
H      -1.42168111     -2.66196096      2.99271661
H      -0.54432855     -4.56797543      1.32395304
H      -1.49366106     -3.50368956      0.23310261
H       1.42492502     -3.19173281     -0.02350005
H       1.58901077     -2.49133609      2.82960695
