17
b3lypvtz=-191982.43048056
C       2.63793925      0.36034939     -0.02689482
N       1.56537089     -0.61756433     -0.05825084
C       0.25966808     -0.16640097      0.01395527
C      -0.24291066      1.07802094     -0.04700451
C      -1.74631192      1.00851205      0.08532406
C      -2.02293102     -0.49824141     -0.12531926
N      -0.73218509     -1.15673413      0.17980022
H       3.59397883     -0.15719396     -0.08869676
H       2.55457784      1.01940218     -0.89178668
H       2.63061527      0.98373468      0.87601365
H       1.72586801     -1.41863035      0.53540474
H       0.32936446      1.99019618     -0.03891989
H      -2.29023052      1.61849464     -0.63961971
H      -2.07924664      1.33021000      1.07955464
H      -2.81429411     -0.88149265      0.51817202
H      -2.30876739     -0.68342344     -1.16622255
H      -0.56039930     -1.97599683     -0.38947160
