16
b3lypvtz=-204457.36327426
C      -2.17364312     -0.12170935      0.44960201
C      -0.91764051     -0.20550922     -0.40607718
C       0.30850354     -0.83856143      0.29274118
C       1.49274284     -0.01014397     -0.21154822
O       2.40820894      0.25375182      0.85028808
C       0.77617398      1.22342933     -0.72872773
N      -0.48221463      1.14295605     -0.83821815
H      -2.98018413      0.36374052     -0.09977105
H      -2.50718598     -1.11808634      0.74546114
H      -1.98150800      0.45721234      1.35490313
H      -1.15755197     -0.75815243     -1.32078924
H       0.41452847     -1.90412334      0.09732971
H       0.24314093     -0.69605787      1.37332193
H       2.01631494     -0.50931704     -1.03780610
H       3.23100937      0.58842794      0.48144401
H       1.30920532      2.13214297     -1.00215352
