18
b3lypvtz=-205208.43902093
C      -1.41580094      1.09829110      0.71268734
N      -0.95342297     -0.01833733     -0.09977466
C      -1.88149552     -1.13718514     -0.02434679
C       0.40384439     -0.43651877      0.23018703
C       1.46373622      0.61279769     -0.12986961
C       2.84974934      0.02348258     -0.11415940
O       3.76818791      0.43395754      0.54664466
H      -1.44386813      0.85932541      1.79022770
H      -2.42280383      1.37877462      0.40344664
H      -0.77366363      1.96685647      0.57510416
H      -1.97324182     -1.55543071      0.99307131
H      -2.87252963     -0.81350977     -0.34390592
H      -1.55533180     -1.93647135     -0.69080190
H       0.50103951     -0.70053509      1.29867007
H       0.60945686     -1.34850500     -0.33646121
H       1.44861298      1.47154175      0.53904091
H       1.25942716      0.95780718     -1.14990061
H       2.98810389     -0.85624118     -0.78085970
