18
b3lypvtz=-202816.39120464
C      -1.61133441      1.45333375     -0.05556224
C      -1.29799520     -0.01106165     -0.34403545
N      -2.54504584     -0.77837583     -0.33896174
C      -0.24489250     -0.58307595      0.63145585
N       1.06230617      0.04487595      0.58374088
C       2.09050163     -0.39449977     -0.20858286
N       3.22499573      0.13832003     -0.43318589
H      -0.71549469      2.07257325     -0.11156281
H      -2.04035356      1.56676312      0.94487216
H      -2.33471809      1.83291401     -0.77575589
H      -0.88172090     -0.08252984     -1.35373658
H      -2.37594952     -1.75512355     -0.55052507
H      -2.98536608     -0.74334565      0.57459608
H      -0.63555150     -0.51746521      1.65237665
H      -0.11040052     -1.64595104      0.41752105
H       1.17046298      0.94593674      1.02064685
H       1.87160392     -1.35450888     -0.67931748
H       3.32797538      1.03240451      0.05038647
