18
b3lypvtz=-181887.72879695
C      -0.82776969      1.91960643      0.15039273
C      -0.31295479      0.51292774      0.05125125
C      -1.16573153     -0.73674436      0.31676477
C      -0.45719765     -1.46764608     -0.86019694
C       0.39385231     -0.22035312     -1.10444373
C       1.14709977      0.17083705      0.13634912
N       1.64852879     -0.82452779      1.05210331
H      -0.10838485      2.63677216     -0.24979783
H      -1.76213988      2.04046157     -0.40344003
H      -1.02514126      2.19482241      1.19106369
H      -2.22211674     -0.55874814      0.11602759
H      -1.05788499     -1.18674901      1.30347165
H      -1.13610726     -1.67751030     -1.68531396
H       0.08892015     -2.37532575     -0.60484136
H       0.68692476      0.15981972     -2.07481285
H       1.77279849      1.04748056     -0.03256117
H       2.52876962     -1.20670707      0.72752449
H       1.80853477     -0.42841601      1.97045926
