15
b3lypvtz=-191199.59541893
C       1.41496922      0.44105772      0.12254041
N       0.55134757      1.63390948      0.17836563
C      -0.68748010      1.40563385      0.02065467
C      -1.21765198      0.00746251     -0.24093883
C      -0.58272844     -0.92927645      0.81816745
C       0.63963729     -0.85674934     -0.12818389
N      -0.34141342     -0.67295699     -1.24620211
H       1.96936988      0.39064883      1.06422383
H       2.16024175      0.60932176     -0.66135340
H      -1.37881553      2.24760869      0.06766550
H      -2.28819565     -0.02981856     -0.43644487
H      -0.47671593     -0.55385613      1.83376425
H      -1.04137707     -1.91460616      0.81006231
H       1.29292889     -1.72575570     -0.21857010
H      -0.01391648     -0.05272350     -1.98375085
