18
b3lypvtz=-202810.91347992
C      -1.21701601     -0.00840345     -1.48905081
C      -0.85812771     -0.12391193     -0.00914726
C       0.47501411      0.57227501      0.36803234
C       1.61822562      0.09616303     -0.50214438
N       2.57282939     -0.58380508     -0.02169968
N       0.71702913      0.39971113      1.80124749
N      -1.90908343      0.50926784      0.78820715
H      -1.24152207      1.03791964     -1.79969573
H      -0.52074157     -0.55348832     -2.12706575
H      -2.21061898     -0.42541476     -1.66363905
H      -0.72640318     -1.19061363      0.23438513
H       0.32043577      1.63821156      0.16897412
H       1.56015593      0.36954903     -1.56040626
H       3.25072952     -0.83473673     -0.73958019
H       1.28788793      1.16118891      2.14781919
H       1.27792598     -0.43702181      1.93192606
H      -2.77436382     -0.01236639      0.71059224
H      -1.62235662      0.49134255      1.76124541
