18
b3lypvtz=-181916.33483288
C       2.44446128      0.00207590     -0.11017368
C       1.11128847     -0.02433523      0.01841563
C       0.29533917      1.17789215      0.43177864
C      -1.02516251      1.23910022     -0.34601870
C      -1.86839573     -0.03886403     -0.13289310
C      -1.00014627     -1.21865776      0.33941180
N       0.32611068     -1.13911721     -0.25810889
H       2.99379039      0.91757104      0.04623477
H       3.00917686     -0.87882595     -0.38791530
H       0.88331399      2.08278125      0.28505934
H       0.07956749      1.11520522      1.50463795
H      -0.79429875      1.35339286     -1.40658660
H      -1.59338009      2.12294644     -0.05224531
H      -2.37105283     -0.30264680     -1.06443570
H      -2.65023045      0.13504044      0.60957420
H      -1.45113917     -2.16463693      0.04090602
H      -0.95040754     -1.22619647      1.43757937
H       0.82808501     -2.01006215     -0.32396741
