21
b3lypvtz=-193499.26810523
C       3.72448247     -0.27250049     -0.00246169
N       2.47990943      0.47614306     -0.09853952
C       1.28842168     -0.35182706      0.04286723
C       0.01427721      0.48162261     -0.04574712
C      -1.26027713     -0.35714757      0.04645081
C      -2.53557971      0.47511147     -0.04365050
N      -3.72226155     -0.37517763      0.09804640
H       4.57133048      0.41235478     -0.05757448
H       3.82250057     -0.86844151      0.91942680
H       3.80215145     -0.96105435     -0.84697939
H       2.46702855      1.20698250      0.60327692
H       1.28565405     -0.92954504      0.98399999
H       1.29822281     -1.08898020     -0.76686799
H       0.01647773      1.22484639      0.76034366
H       0.03213359      1.04372778     -0.98326215
H      -1.28011368     -0.91955115      0.98357139
H      -1.26323108     -1.10062088     -0.75923520
H      -2.54939343      1.20045830      0.77457729
H      -2.51958434      1.05661460     -0.97764394
H      -3.79382702     -1.01039534     -0.68916499
H      -4.56523309      0.18660472      0.09073449
