17
b3lypvtz=-217688.26240385
C       2.67289278      0.35094721     -0.12321307
C       1.53939350     -0.56033863      0.34266612
C       0.22564897     -0.26250237     -0.34642691
O      -0.24099708      1.04908893     -0.02801903
C      -1.65240022      0.98257053      0.18440704
C      -2.00362544     -0.47301254     -0.13998010
O      -0.77731594     -1.15419481      0.09067416
H       2.84634719      0.25288750     -1.19702782
H       3.60421878      0.10051466      0.38516106
H       2.44302067      1.39571701      0.08465556
H       1.78388175     -1.60676231      0.14593861
H       1.37763683     -0.45957762      1.41762853
H       0.32907048     -0.33469913     -1.44214584
H      -1.87014952      1.23286591      1.22545938
H      -2.16262130      1.69510047     -0.46673239
H      -2.31637361     -0.58536189     -1.18506855
H      -2.76490484     -0.89945292      0.50957326
