14
b3lypvtz=-180359.94687368
C      -1.91415980     -1.79628200     -0.00003573
C      -1.42802971     -0.69661735      0.00014422
C      -0.79672818      0.59154633      0.00025893
C      -1.52073929      1.71921009      0.00000261
N       0.61267320      0.70312619      0.00006473
C       1.34537815     -0.33560651      0.00018157
C       2.83372564     -0.23875958      0.00032115
H      -2.36600941     -2.75692796     -0.00006966
H      -1.01536057      2.67403144     -0.00012034
H      -2.59980027      1.69392257     -0.00011216
H       0.91615264     -1.34320241      0.00029073
H       3.24733238     -0.74638669     -0.87586079
H       3.24719180     -0.74632349      0.87660678
H       3.15331541      0.80104537      0.00030796
