14
b3lypvtz=-203659.02579188
C      -1.44342963     -0.57051781      0.40947110
C      -1.28414880      0.93577742      0.08170933
N      -0.04360476      0.68271171     -0.74082375
C      -0.14128678     -0.76509072     -0.35571033
C       0.93518249      0.09136197      0.20714261
C       2.29977725     -0.04541232     -0.36005839
O       3.30523580     -0.04536682      0.30445812
H      -1.44556762     -0.87550603      1.45570589
H      -2.29891441     -1.01823615     -0.09152876
H      -2.06880355      1.33333245     -0.55731773
H      -1.11793149      1.61813328      0.91570608
H       0.07243886     -1.55936317     -1.06033688
H       0.90162246      0.37179083      1.25469658
H       2.32943018     -0.15361464     -1.46311387
