10
b3lypvtz=-251380.32935798
O      -2.65809095      0.07923356     -0.22745297
C      -2.10760920     -0.95901256      0.03524020
N      -0.70673427     -1.16313339      0.21428029
C       0.02083350     -0.12560405      0.07654483
N       1.40044101     -0.24690617      0.23699438
C       2.14845274      0.75146650      0.10986054
F       1.74382722      1.99966441     -0.18111593
H      -2.66510018     -1.89628452      0.16860376
H      -0.40113493      0.85201987     -0.16245429
H       3.22521508      0.70865635      0.22459919
