17
b3lypvtz=-191976.08497299
C      -3.19353628      0.92708838      0.07759833
C      -2.38806338     -0.07917371      0.38948105
C      -1.32275378     -0.64043143     -0.51055801
N      -0.05956236     -0.77355366      0.19498758
C       0.94995737     -0.16933551     -0.27855876
N       2.20617680     -0.28287020      0.25147625
C       3.23603087      0.70777274      0.00862930
H      -3.12337109      1.43719357     -0.87654017
H      -3.95506767      1.27819720      0.76183023
H      -2.47183868     -0.56281890      1.35752347
H      -1.63583787     -1.64134266     -0.83396038
H      -1.24187591     -0.02319517     -1.41799794
H       0.91016720      0.46367549     -1.17482241
H       2.23771571     -0.77387007      1.13220305
H       4.21980081      0.26200708      0.15410770
H       3.15610731      1.58819515      0.65692247
H       3.17681698      1.04487069     -1.02639676
