17
b3lypvtz=-191990.01297874
N       2.70947153     -0.27026091      0.08866063
C       1.70965427      0.51794798     -0.02291798
N       0.38018121      0.22579383     -0.08068597
C      -0.14882900     -1.13098696      0.01962845
C      -1.66082454     -0.94886618     -0.17342538
C      -1.91702371      0.48318103      0.31719948
C      -0.67544635      1.23596020     -0.16720725
H       2.42330894     -1.24726119      0.13353851
H       1.90861544      1.58884365     -0.08156870
H       0.08505705     -1.56299838      0.99991305
H       0.29074742     -1.78508667     -0.73827788
H      -1.91304925     -1.03029475     -1.23258877
H      -2.24062548     -1.69806490      0.36356737
H      -2.84312217      0.90929377     -0.06649746
H      -1.96161859      0.50517028      1.40802910
H      -0.81113578      1.58474275     -1.19815233
H      -0.43695999      2.10320344      0.44993613
