17
b3lypvtz=-191952.78667574
C      -1.55585629     -1.02276724      0.00327875
C      -1.48156877      0.43075498      0.57235704
C      -0.11928628      0.60042066     -0.09542728
C      -0.19568712     -0.81092085     -0.65949708
C       0.83387192     -0.47205635      0.39495672
N       2.17650482     -0.32507160     -0.10921889
N       0.27555959      1.81657126     -0.73662519
H      -2.36827359     -1.14344582     -0.71066462
H      -1.60826518     -1.83236191      0.73510577
H      -1.50411400      0.54247121      1.65894438
H      -2.23209736      1.08324873      0.12963613
H       0.11451245     -1.18290669     -1.62664856
H       0.70517801     -0.89589866      1.39466238
H       2.62731528     -1.22324448     -0.23236847
H       2.74805150      0.21799412      0.52674486
H       0.41825156      2.54646456     -0.04401381
H       1.16590345      1.67074806     -1.20122217
