18
b3lypvtz=-181884.8178307
C       1.93720993     -1.90881475     -0.02071940
C       1.06649018     -1.09546389      0.12164296
C      -0.02954776     -0.13713591      0.25962040
C      -1.35472757     -0.75536104     -0.24875072
C      -2.61154913      0.00789136      0.17078076
C       0.30613096      1.19545215     -0.44093347
N       1.43826483      1.86286494      0.20087889
H       2.71925616     -2.61626603     -0.13736519
H      -0.15252819      0.07612769      1.32919790
H      -1.41452025     -1.77700015      0.12903932
H      -1.30755137     -0.83736558     -1.33810184
H      -2.66760573      0.10527074      1.25747096
H      -3.50684879     -0.52197482     -0.15783210
H      -2.65356851      1.01059401     -0.25546972
H      -0.60243186      1.80901650     -0.46856979
H       0.58126620      0.98063954     -1.47514426
H       1.16520129      2.24805372      1.09760779
H       1.76324362      2.63731152     -0.36399449
