18
b3lypvtz=-181858.36061938
C       2.04743126      0.65387460     -0.63944325
C       1.30930096     -0.27688346      0.32504846
C      -0.19409263     -0.20058607      0.20695139
C      -1.26900667     -0.97708072      1.00071504
N      -2.13555925     -0.11427774      0.06807656
C      -1.14213099      1.00697912      0.41570894
C      -1.10716212     -0.49876967     -1.00880338
H       1.80958533      0.41675145     -1.67818926
H       3.12809639      0.56838800     -0.51978281
H       1.77685767      1.69742581     -0.46752735
H       1.62238529     -1.31158912      0.15238251
H       1.59219368     -0.04069995      1.35590291
H      -1.36837594     -2.04789179      0.81817997
H      -1.39859427     -0.73992269      2.05749710
H      -1.26278294      1.39509543      1.42800768
H      -1.12545357      1.81199690     -0.31944655
H      -1.19469336     -1.53365281     -1.34230158
H      -1.08799881      0.19084271     -1.85297640
