15
b3lypvtz=-216926.28080608
C       2.30852627     -0.05184146     -0.03077897
C       0.84460373     -0.03665942      0.32321376
O       0.29481767      1.21798149     -0.10466771
C      -1.06691139      1.23764300     -0.06735735
C      -1.81469355      0.14448617      0.05731435
C      -1.17529194     -1.21033216      0.04839885
O       0.20647753     -1.11317009     -0.30695021
H       2.80747987      0.81074116      0.40840382
H       2.42208646     -0.01697591     -1.11359337
H       2.77046683     -0.96317527      0.34609022
H       0.67892905     -0.09507560      1.40855963
H      -1.46390429      2.23998392     -0.15002782
H      -2.89051967      0.22740380      0.11209078
H      -1.62760848     -1.85131746     -0.71056440
H      -1.28076811     -1.72326618      1.01488240
