15
b3lypvtz=-191204.79340621
C       2.56594732     -0.04012664     -0.42663465
N       1.45931389     -0.48049526     -0.01730390
C       0.58648989      0.42554946      0.72040358
C      -0.77168419      0.56777922      0.06888427
C      -1.24909046      1.76647082     -0.27177056
C      -1.61429749     -0.62996280     -0.14387742
N      -1.30556496     -1.85185814      0.00451650
H       2.90387369      0.99031015     -0.26022304
H       3.23397363     -0.70071256     -0.97406558
H       0.44706000     -0.01311619      1.71447903
H       1.03535898      1.41810480      0.85292791
H      -2.23865989      1.87274124     -0.69841340
H      -0.67478063      2.67362695     -0.13659492
H      -2.63323504     -0.40407802     -0.46908460
H      -0.32206374     -1.95043703      0.26229877
