19
b3lypvtz=-192738.37866887
C       3.63958269     -0.05260041      0.15440724
C       2.27572551      0.58407263     -0.07370958
N       1.20862794     -0.40271253      0.03921535
C      -0.07042100     -0.07175812     -0.38188791
C      -1.22362850     -0.51525250      0.12909442
C      -2.56266115     -0.20690103     -0.46197760
N      -3.44090368      0.42434498      0.53670314
H       3.71295368     -0.47527487      1.15924476
H       4.43265371      0.68916564      0.05176187
H       3.81627479     -0.85469930     -0.56270649
H       2.13666794      1.42285777      0.62392522
H       2.22729351      1.00546245     -1.08054447
H       1.22907959     -0.91761789      0.90872791
H      -0.08278002      0.57502706     -1.25506831
H      -1.22203840     -1.14070347      1.01717559
H      -3.05970539     -1.13196059     -0.77428593
H      -2.42185357      0.39265194     -1.37355214
H      -3.06182913      1.32543907      0.80518206
H      -4.36095953      0.59213019      0.14536486
