15
b3lypvtz=-216902.4079486
O       2.82388568     -0.28825947      0.27415950
C       2.06687330      0.82272125      0.00912289
C       0.75606390      0.86509612      0.22381253
C      -0.07196131     -0.26548768      0.76345007
C      -1.08264727     -0.76326429     -0.24561674
C      -2.45256854     -0.24780128     -0.30065174
O      -2.17640287     -1.53613733      0.26079134
H       3.74399458     -0.10757774      0.06892461
H       2.60463940      1.67721167     -0.38613837
H       0.25278770      1.79083864     -0.02573702
H      -0.61536416      0.05191859      1.65849858
H       0.57397081     -1.09402348      1.05708970
H      -0.65758591     -1.15621539     -1.16630549
H      -3.00124092     -0.25783240     -1.23717685
H      -2.76454439      0.50881279      0.41357700
