13
b3lypvtz=-239678.45899416
C      -2.84956673     -0.32196681     -0.05255734
N      -1.45568451     -0.69389489     -0.03544343
C      -0.44201871      0.21396084      0.04675901
N      -0.51803121      1.48916554      0.06292065
N       0.80658622     -0.47230898      0.12560710
C       1.83756871      0.19409989     -0.09579902
F       3.03243652     -0.39121641     -0.01444665
H      -3.08531817      0.29486620     -0.92399182
H      -3.13712250      0.23362933      0.84633021
H      -3.45530500     -1.22366753     -0.10551402
H      -1.19482611     -1.65665199      0.08281705
H      -1.47666550      1.81935627      0.01567026
H       1.90375499      1.24620352     -0.35603499
