13
b3lypvtz=-234687.22642501
N       2.61640567     -0.64131151      0.11198922
C       1.99287997      0.56557543     -0.12291946
N       0.73348342      0.76958587     -0.18846937
N      -0.06434123     -0.34947204      0.03202292
C      -1.45481378     -0.20264372      0.01108544
N      -1.88980531      1.07312872      0.21162493
O      -2.17520125     -1.17654628     -0.11318327
H       2.10935204     -1.29550767      0.69113158
H       3.59818935     -0.59551583      0.32727210
H       2.63871736      1.41199050     -0.32040060
H       0.22335691     -1.22403824     -0.39228184
H      -2.86671632      1.23256887      0.04382134
H      -1.23595584      1.82292890      0.05744401
