14
b3lypvtz=-203709.52881483
C      -1.78975621     -0.57896861      0.26088464
C      -0.34505333     -0.21799136      0.36317591
C       0.28090549      1.00971879      0.34009849
C       1.67783803      0.81567058      0.47302904
C       1.87998117     -0.54067959      0.57572605
N       0.66144989     -1.15548570      0.50909940
O      -0.29866656      2.24675739      0.21222905
H      -2.23323742     -0.25400093     -0.68535070
H      -2.38515707     -0.14320892      1.06912199
H      -1.92561835     -1.65997988      0.31738760
H       2.43068707      1.58444335      0.48977270
H       2.78788554     -1.10598004      0.68965560
H       0.51063888     -2.14618511      0.55839955
H      -1.25189713      2.14589005      0.13635109
