18
b3lypvtz=-181879.22444343
C       2.44103940     -0.20109223      0.00261195
N       1.24783447     -0.20917416      0.84489197
C       0.02375962     -0.00094558      0.14016729
C      -0.79864424     -1.15133043     -0.45728786
C      -2.10293680     -0.43298386      0.01508096
C      -1.24606994      0.69098757      0.60158617
C      -0.40120925      1.30796127     -0.48667666
H       3.32484227     -0.34596307      0.62439378
H       2.56890252      0.72271804     -0.57988139
H       2.39434792     -1.03334149     -0.70189615
H       1.33949195      0.45951827      1.59861921
H      -0.62707287     -2.08364703      0.07744992
H      -0.68621301     -1.32461300     -1.52898476
H      -2.63943338     -1.00680903      0.76871858
H      -2.80650085     -0.13042839     -0.76324467
H      -1.43926834      1.21292250      1.52954338
H       0.18536667      2.16551018     -0.18134386
H      -0.77823614      1.36071045     -1.50374785
