17
b3lypvtz=-191967.30218724
N      -2.66990103     -0.30981119      0.28882420
C      -1.56349429     -0.78145568     -0.10925500
C      -0.31164969     -0.04931470     -0.47781420
C      -0.15564554      1.46609269     -0.20580842
C       1.31919167      1.19743985      0.18718173
C       0.97170122     -0.29526003      0.37802501
N       1.93308017     -1.25420506     -0.14588020
H      -2.63378759      0.71181517      0.33014453
H      -1.49900902     -1.87134109     -0.19492010
H      -0.05468307     -0.28436385     -1.51477281
H      -0.33965087      2.14531414     -1.03561290
H      -0.74836959      1.79269237      0.64980722
H       1.72254803      1.73426828      1.04461892
H       1.99017465      1.31805613     -0.66339988
H       0.68009306     -0.48094481      1.42037612
H       1.61984852     -2.20509247      0.01815766
H       2.81931938     -1.16006976      0.33946012
