16
b3lypvtz=-204447.58075925
C       2.25978451      0.14599602      1.02285781
C       1.42844724     -0.00637428     -0.01408104
N       1.31762992     -1.19952829     -0.73243947
C       0.49980445      1.09467622     -0.46752806
C      -0.98165384      0.83186092     -0.34885186
C      -1.53799150     -0.21560872      0.24491614
O      -2.90028857     -0.34739297      0.34243749
H       2.93559056     -0.64133274      1.33252578
H       2.26805531      1.06148044      1.59344748
H       1.00291329     -1.10289147     -1.68508499
H       2.10399407     -1.82497473     -0.65103156
H       0.75170798      2.00029095      0.08921038
H       0.72895124      1.32683123     -1.51682413
H      -1.63686897      1.58945228     -0.76576245
H      -0.95010083     -1.01787042      0.67355953
H      -3.10656986     -1.18331844      0.76687895
