16
b3lypvtz=-204432.16521718
C      -2.77192913     -0.45225998      0.05154885
C      -1.58133679      0.03219510     -0.29249193
C      -0.31545727     -0.31115705      0.37417169
C       0.84547935      0.68325106      0.47312548
N       0.69453232      1.97259712     -0.14667131
C       0.96831584     -0.49948965     -0.41701458
O       1.87868019     -1.49086164     -0.02876917
H      -3.67040692     -0.16753243     -0.47910027
H      -2.88997745     -1.14795169      0.87431155
H      -1.50920916      0.73641262     -1.11356984
H      -0.40118800     -0.96719770      1.23235323
H       1.40845750      0.60351959      1.40054765
H       1.59642482      2.36781673     -0.38411319
H       0.22612439      2.62324159      0.47224414
H       0.91287370     -0.30353889     -1.48349312
H       1.53411160     -2.34583877     -0.30680118
