17
b3lypvtz=-191974.12086206
C       2.30489449     -0.80097320     -0.39254659
C       1.63668044      0.34785036      0.32480719
C       0.70178183      1.27614897     -0.39905370
C       0.16433436      0.33808212      0.65781035
N      -0.63289488     -0.77689403      0.25274442
C      -1.96262151     -0.65528139     -0.08887874
N      -2.65318255      0.39589708     -0.27473830
H       2.59476951     -1.59227374      0.30343232
H       3.21113748     -0.45998233     -0.89659893
H       1.64979885     -1.23696377     -1.14608933
H       2.25274467      0.81217810      1.08548082
H       0.45869966      1.03225395     -1.42421264
H       0.73071845      2.33380952     -0.17701000
H      -0.11960777      0.79318516      1.60300461
H      -0.34026000     -1.68755937      0.56779497
H      -2.44077724     -1.62483697     -0.23280939
H      -2.10386281      1.23892255     -0.11156305
