15
b3lypvtz=-216936.34797194
C      -2.25364117     -0.68517319     -0.18240404
C      -1.01724356     -0.99729021      0.17965999
C       0.11777237     -0.03803185      0.38617904
C      -0.10884208      1.38910869     -0.07901343
O       1.25307921     -0.61174536     -0.34727068
C       2.47580212     -0.41126133      0.15894082
O       2.74828717      0.19406292      1.15913904
H      -2.55926956      0.33105999     -0.39316981
H      -3.01442435     -1.44823218     -0.27640009
H      -0.76259457     -2.03329541      0.37805631
H       0.40051748     -0.03560194      1.44103809
H      -0.93466875      1.84012611      0.47160469
H      -0.34003148      1.41912260     -1.14375666
H       0.78238940      1.98535215      0.10863370
H       3.21296779     -0.89830099     -0.49333697
