14
b3lypvtz=-227000.6984844
C       1.66230717     -0.94282877     -0.73218404
C       1.10092553      0.18796309      0.08113004
N       1.65023835      1.30470467      0.32410250
C      -0.30888419     -0.00756040      0.65115501
O      -0.71765728     -1.34639022      0.67983558
C      -1.27949531      0.83240697     -0.16529199
O      -2.25223568      0.34026033     -0.68039715
H       2.64152286     -0.67974645     -1.13013731
H       1.74361281     -1.84431756     -0.12400408
H       0.99250429     -1.19293808     -1.55794717
H       2.56842765      1.37229763     -0.11464564
H      -0.30020392      0.42613591      1.65956229
H      -1.55258246     -1.38798713      0.18639468
H      -1.03282180      1.90219400     -0.25408073
