14
b3lypvtz=-250291.20569849
C       1.89099873      0.19229816      0.45487757
O       2.91627766      0.96155217     -0.07668507
O       0.83794588      0.09784785     -0.49890150
C      -0.17501686     -0.77066223     -0.12877431
C      -1.44915992     -0.38601720     -0.22370420
N      -1.88867555      0.91928060     -0.46176107
O      -2.45400336     -1.30397441     -0.07981351
H       2.22042985     -0.82402764      0.71456995
H       1.54435303      0.70389005      1.35655544
H       3.25444009      0.51673125     -0.86160929
H       0.09652046     -1.77369587      0.17397609
H      -1.10901053      1.55368674     -0.57529265
H      -2.50354586      0.98042747     -1.26522851
H      -3.18155363     -0.86733696      0.38135642
