15
b3lypvtz=-216915.47820538
C      -3.32668149     -0.16884551     -0.10760447
O      -1.95957481     -0.49057231     -0.26489391
C      -1.09883255      0.46143751      0.32769755
C       0.30926910     -0.01138602      0.19832433
C       1.35100156      0.76458566     -0.10392913
C       2.73152133      0.24088412     -0.16425945
O       3.05263018     -0.89938927      0.08198575
H      -3.57284289      0.78916856     -0.58194650
H      -3.90056117     -0.95880576     -0.58763485
H      -3.60720503     -0.11543247      0.95181701
H      -1.22738553      1.44972371     -0.13387904
H      -1.34091344      0.56942203      1.39825776
H       0.48078412     -1.06497480      0.39357972
H       1.21944415      1.81857664     -0.32632981
H       3.49752346      0.98293390     -0.46587798
