14
b3lypvtz=-180372.94509237
C      -1.24414098      0.71056271     -0.41110866
C      -1.26780753     -0.61977076     -0.45537741
C       0.01240172     -1.10606740      0.22254858
C       0.12135287     -0.04695756      1.34697784
C       0.05212830      1.10859607      0.30240034
C       1.18696131      0.57180793     -0.59119145
N       1.18762549     -0.69475175     -0.65483583
H      -1.94193188      1.40871560     -0.84728855
H      -1.99300205     -1.25959715     -0.93375945
H       0.06774800     -2.15717028      0.48310716
H      -0.71934782     -0.04777309      2.03835091
H       1.06744389     -0.09573472      1.88644534
H       0.13587104      2.13593835      0.64337351
H       1.90025464      1.18654405     -1.12963733
