14
b3lypvtz=-203663.27770822
C      -2.56346769     -0.20703433      0.03557865
N      -1.27540704      0.38496952      0.34435447
C      -0.11686960     -0.29548840      0.05797837
C       1.07646959      0.29854746     -0.14286036
C       2.27996553     -0.39942699     -0.37006906
C       3.34077940     -0.93332080     -0.58285392
O       1.11741574      1.69271035     -0.10377107
H      -2.77833294     -0.25521283     -1.03957595
H      -2.60249413     -1.22233876      0.43290233
H      -3.35246102      0.36761055      0.51948216
H      -1.20991211      1.38218057      0.20795283
H      -0.17770054     -1.37376306      0.04531090
H       4.26731046     -1.41762650     -0.76333620
H       1.99470434      1.97819321     -0.37429139
