12
b3lypvtz=-223791.11491615107
C      -0.17383437      1.07648788      0.54739905
C      -0.18687206     -0.25884146     -0.14249199
N      -1.23235323     -0.90044769     -0.52596763
O      -2.42628205     -0.21190710     -0.23101219
C       1.06939816     -0.92605221     -0.42390979
N       2.20780671     -0.39408068     -0.09397304
N       3.20335129      0.06637483      0.19201465
H       0.31848812      0.99911281      1.51893970
H      -1.18376388      1.44218220      0.69346109
H       0.38376469      1.80598904     -0.04361554
H      -3.09240680     -0.81400513     -0.57550601
H       1.11270342     -1.88481247     -0.91533828
