15
b3lypvtz=-193588.18362489
C       3.51901943     -0.25213747     -0.16319235
C       2.09379364     -0.09275004      0.08143342
C       0.91608245      0.04821291      0.27702226
C      -0.48733475      0.21021367      0.54562004
O      -1.21748621      1.17250818     -0.24588066
C      -1.53192795     -0.21162074     -0.40660444
C      -2.89415775     -0.65930190      0.04099740
H       4.07979483     -0.25674605      0.77349310
H       3.90058619      0.56674092     -0.77639776
H       3.72945893     -1.18745167     -0.68576296
H      -0.75643121      0.22708894      1.59831898
H      -1.18288896     -0.62598209     -1.34914536
H      -2.92980002     -1.74709433      0.12967197
H      -3.15067701     -0.21994428      1.00493492
H      -3.65108761     -0.35604705     -0.68491154
