14
b3lypvtz=-203651.85521602
C      -1.20070089     -0.44664879     -0.42845695
C      -0.08711742     -1.00493361      0.51944161
C      -0.17701286      0.35602088      1.28613799
C      -0.20445473      0.74857276     -0.23458920
C       0.88987948     -0.28093869     -0.40345927
N       1.97830726     -0.32877683     -1.02642211
O      -0.28980535      2.00592419     -0.78186854
H      -2.17521394     -0.31178092      0.03878675
H      -1.27113559     -0.87718505     -1.42527693
H      -0.02311842     -1.99815262      0.94670924
H       0.69263547      0.66317514      1.86357891
H      -1.11270542      0.52184587      1.81825667
H       2.45938940     -1.21767071     -0.89403115
H       0.52105301      2.17054838     -1.27880703
