16
b3lypvtz=-181114.17222217
C       3.00148387     -0.58933451      0.33520635
C       1.90952988     -0.24911766     -0.03262263
C       0.58345515      0.15795670     -0.44707908
C       0.01310583      1.53396096      0.01658568
C      -1.37179447      0.85791414      0.16606454
C      -0.66114190     -0.51294523      0.21137612
N      -1.26968277     -1.59507900     -0.54405314
H       3.96899437     -0.88683015      0.65393719
H       0.48017161      0.06286469     -1.53025474
H       0.10474137      2.36008454     -0.68531654
H       0.43451160      1.83300295      0.97478092
H      -1.98326521      1.13704150      1.02264942
H      -1.96477437      0.94416011     -0.74477685
H      -0.41363909     -0.77091114      1.24863959
H      -2.15402212     -1.86350750     -0.12540808
H      -0.67777376     -2.41906041     -0.51982877
