12
b3lypvtz=-223827.92358022
C      -1.81097550     -0.94032231      0.00004637
N      -0.43282677     -0.49380476      0.00002417
N       0.59730799     -1.38307624     -0.00002101
N       1.69875189     -0.70208434     -0.00006508
C       1.41792358      0.62880659      0.00000627
C       0.04979681      0.76477368      0.00001276
O      -0.80295500      1.81298382      0.00003185
H      -2.00573546     -1.53992490      0.88756120
H      -2.00575701     -1.53992708     -0.88746244
H      -2.45911784     -0.06833718      0.00005269
H       2.18583600      1.38220428     -0.00017861
H      -0.29863568      2.63247043      0.00009081
