16
b3lypvtz=-204438.29124077
C      -3.01038574      0.34981887      0.18543994
C      -1.77301094     -0.35812109     -0.26038545
N      -0.61532585     -0.00822989      0.11309315
C       0.52347926     -0.70759662     -0.36374353
C       1.63440487     -0.97285797      0.64862978
C       1.79797184      0.10975393     -0.36964226
O       1.73868938      1.45163847      0.00400414
H      -3.68103439     -0.34093135      0.70410966
H      -2.76202376      1.17460226      0.85043001
H      -3.56299774      0.73528377     -0.67592492
H      -1.91371167     -1.21162338     -0.93748371
H       0.36739642     -1.44298157     -1.14997615
H       2.19460791     -1.89207560      0.54316200
H       1.43536823     -0.66177825      1.66465614
H       2.49291634     -0.04956959     -1.18361478
H       0.83974282      1.60598103      0.32785798
