15
b3lypvtz=-216913.7189763
C      -2.78442296     -0.47343606     -0.01660357
C      -1.56386324     -0.13700379      0.37334806
O      -0.48957435     -0.17519638     -0.47964322
C       0.66681785      0.50601196     -0.07474912
C       0.59828967      1.99532053     -0.03552236
C       1.75060019     -0.23839312      0.13960773
O       1.79482013     -1.59391357      0.05275232
H      -2.99355633     -0.76169135     -1.03717627
H      -3.59260916     -0.47300848      0.69832446
H      -1.32709496      0.15494478      1.39101884
H      -0.14325300      2.35155375      0.68481870
H       1.56511178      2.41251293      0.24464290
H       0.31904945      2.39827530     -1.01287740
H       2.70523671      0.20067121      0.38882771
H       0.92276022     -1.89742371     -0.23452377
