15
b3lypvtz=-214519.59631875
N       3.55826619      0.84292218      0.61325995
C       2.75052841      0.04363005      0.43579584
C       1.70421230     -0.97200783      0.20371069
O       0.40889625     -0.49779713      0.45987366
C      -0.05686588      0.48239124     -0.47568960
C      -1.50643456      0.77560611     -0.15624708
N      -2.33466854     -0.40323754     -0.40893715
H       1.80731452     -1.33781908     -0.82570107
H       1.88090404     -1.80909123      0.87962073
H       0.54694901      1.39228833     -0.39374444
H       0.02895194      0.08406676     -1.49321638
H      -1.56299368      1.15525927      0.87328223
H      -1.83587311      1.58084995     -0.81674362
H      -2.07823983     -1.14342016      0.23354179
H      -3.31104705     -0.19384094     -0.24210555
