12
b3lypvtz=-223840.46152072
N       1.63223039      1.35886666      0.13272459
C       1.47684826      0.09840595      0.04326144
N       2.41536869     -0.87344448     -0.19246422
N       0.18620427     -0.49882033      0.18806553
C      -0.83035571      0.21060641     -0.08167455
C      -2.17884285     -0.39416812      0.09869793
O      -3.19853450      0.19999823     -0.14814707
H       2.60779902      1.63466448      0.05133556
H       2.15711941     -1.81862855      0.03366402
H       3.38895227     -0.63747810     -0.11527967
H      -0.77097092      1.24121160     -0.43397731
H      -2.16811733     -1.43409874      0.47423275
