14
b3lypvtz=-250303.09326307
C       2.58023364     -0.22608753     -0.03167737
O       1.24024420     -0.58717287     -0.36426146
C       0.25926381      0.27289431     -0.04500819
N       0.33053138      1.41817496      0.48996038
C      -1.11859320     -0.30750537     -0.37175733
O      -1.44321084     -1.30563490      0.57841719
O      -2.06153656      0.71251361     -0.41610803
H       2.88023461      0.68731463     -0.54996714
H       2.69181986     -0.09187004      1.04624217
H       3.20238985     -1.05226039     -0.36189430
H       1.26716415      1.73112688      0.72221810
H      -1.08659733     -0.82898395     -1.32879142
H      -1.68417183     -0.85206637      1.39534460
H      -1.65158874      1.47954205      0.01880379
