14
b3lypvtz=-180369.68055591
C      -0.92886115      1.16816118      0.21326829
C      -0.01314241     -0.08236020      0.21910195
C      -0.62595597     -1.20312329     -0.65879710
C       1.32490252      0.27074014     -0.27569393
C       2.40244246      0.56745343     -0.70711605
C       0.10156600     -0.57769137      1.60549203
N       0.15275306     -0.96864824      2.68586903
H      -1.91727695      0.90694786      0.58970928
H      -0.51103187      1.95629862      0.83626511
H      -1.02136248      1.53866194     -0.80669467
H      -1.61348658     -1.47055908     -0.28436225
H      -0.71720301     -0.84511864     -1.68333006
H       0.00575786     -2.08893728     -0.65156563
H       3.36089852      0.82817492     -1.08214601
