14
b3lypvtz=-203685.3407468
C      -1.79593909     -1.18317603     -0.05752338
C      -0.59552843     -0.62387287      0.03020366
C       0.74117141     -1.31447682      0.14126359
O       1.70708261     -0.34426100     -0.26468424
C       1.21262605      0.94553993      0.08216610
C      -0.29777134      0.83700317      0.02536217
N      -1.06279211      1.84559692     -0.01026117
H      -2.69357073     -0.58099895     -0.13674692
H      -1.93229521     -2.25666929     -0.05573043
H       0.83906611     -2.18378091     -0.50792407
H       0.92854701     -1.63239464      1.17703693
H       1.60278089      1.67728391     -0.62248714
H       1.52662686      1.23227458      1.09559227
H      -2.04594305      1.56940602     -0.03565037
