16
b3lypvtz=-204439.69035472
C      -1.56675276      1.05677390      0.04872040
C      -1.86253802     -0.40540952      0.24776188
C      -0.76340454      0.03332080     -0.69943756
C       0.65757394     -0.25553097     -0.38073187
C       1.49770295      0.66959990      0.09200522
O       2.83008370      0.34606628      0.31074488
N       1.08947604     -1.54869742     -0.71456569
H      -2.27284049      1.65115192     -0.51411627
H      -1.09312654      1.58106119      0.86584260
H      -1.56237516     -0.84582394      1.18908237
H      -2.77097975     -0.81241290     -0.17440604
H      -1.00494467     -0.07653083     -1.75164234
H       1.20736272      1.70011185      0.23423218
H       3.19552548      0.94042175      0.97047878
H       0.41620565     -2.26666648     -0.48772123
H       2.00303145     -1.76743553     -0.34288612
