17
b3lypvtz=-191971.07872123
C      -3.59681336     -0.27868564     -0.26856407
N      -2.55828335      0.42409018     -0.07147386
C      -1.34172708     -0.23029066      0.13378045
C      -0.21630033      0.45277417      0.35090084
C       1.12667055     -0.16144535      0.57663477
C       2.16612405      0.27154973     -0.46488380
N       3.46292609     -0.34413051     -0.17464691
H      -4.55088348      0.21431990     -0.43049861
H      -3.58693534     -1.37501981     -0.28521687
H      -1.33718958     -1.32325995      0.11546164
H      -0.28609433      1.53617049      0.35641989
H       1.49507121      0.13505475      1.56711541
H       1.06183831     -1.25087033      0.57946087
H       1.84382782     -0.07095149     -1.45047027
H       2.19468783      1.37021075     -0.50646431
H       3.85158749      0.03695821      0.68089021
H       4.12732350     -0.13709944     -0.91056436
