13
b3lypvtz=-211374.790679
N       2.43581240     -0.79885402     -0.34796461
C       1.49090249     -0.24642219      0.01057784
C       0.28119432      0.48347341      0.43866673
N       0.24190260      1.86328658     -0.01933560
C      -1.00968983     -0.26924658      0.02405275
N      -2.07721335      0.31743294     -0.32519862
N      -0.94312331     -1.63212054      0.17696288
H       0.28933042      0.49102775      1.53212845
H       0.95167396      2.41955504      0.43902434
H       0.39545736      1.92088307     -1.01910343
H      -1.94862879      1.32597487     -0.29369533
H      -0.05819716     -2.08994573      0.03129744
H      -1.74638912     -2.12963560     -0.17378185
