15
b3lypvtz=-216889.56728499
C      -1.84499858      0.94942741      0.18832886
C      -0.47295005      0.55883321     -0.30304791
C      -0.09025802     -0.90776759     -0.15561364
C       1.40837882     -1.04452065     -0.31953476
C       0.87588867     -0.42110451      0.91900447
O       0.56833221      0.95619844      0.66185484
O       2.15069378     -0.31708968     -1.25096438
H      -2.04850412      0.51318070      1.16684211
H      -2.60741144      0.60355071     -0.51373610
H      -1.92201228      2.03450042      0.26839081
H      -0.26633083      0.99543496     -1.28368853
H      -0.77576020     -1.74241982     -0.17082276
H       1.77111853     -2.05987479     -0.21513680
H       1.07147936     -0.71334217      1.94187451
H       2.18233414      0.59499335     -0.93375069
