16
b3lypvtz=-181116.81000845
C      -1.34432077     -0.73230417      0.55515012
C      -1.16047954      0.45333147     -0.35163809
C      -0.49277377     -0.86450061     -0.68090275
C       0.99612968     -0.62501873     -0.60974360
C       1.64339443     -0.23857364      0.66671354
N       1.26814914      0.79750766     -0.30351929
C      -0.04189341      1.45636479     -0.07383049
H      -0.87924029     -0.73702530      1.53043658
H      -2.31095957     -1.21847231      0.53415300
H      -2.01662627      0.79830873     -0.91638696
H      -0.85009792     -1.48870065     -1.48758522
H       1.59234813     -1.07049309     -1.39710402
H       2.71224970     -0.36872685      0.79186615
H       1.08037693     -0.32676549      1.58749067
H      -0.07877759      1.87915994      0.93317805
H      -0.11747887      2.28590826     -0.77827770
