16
b3lypvtz=-227778.41847786
C      -2.42228664      0.93578410     -0.09002515
C      -1.36113046     -0.13254430     -0.04520661
O      -1.46210854     -1.23127354     -0.52901958
O      -0.26957976      0.30516780      0.62289339
C       0.83918768     -0.61869104      0.76406314
C       1.85310860     -0.42121040     -0.34503247
N       2.48026542      0.89851491     -0.24500841
H      -2.69472599      1.23290408      0.92289610
H      -3.29432964      0.55858645     -0.61544640
H      -2.03873858      1.82242273     -0.59585095
H       1.28210821     -0.37631923      1.72814371
H       0.45424652     -1.63602336      0.76264535
H       1.36303413     -0.62007978     -1.30698357
H       2.62880744     -1.18079138     -0.21792847
H       3.16418783      1.02209156     -0.98154181
H       1.78241377      1.62251039     -0.37085126
