14
b3lypvtz=-227014.33782952
C       3.02884251      0.24142427      0.55252829
C       2.06003811     -0.37054663     -0.45760693
N       0.75410154      0.25184999     -0.34533221
C      -0.24491814     -0.47931122     -0.11312266
C      -1.61169621      0.12851317      0.01733202
O      -1.89578109      1.28991928     -0.07546150
O      -2.52161992     -0.84865375      0.26485459
H       4.02862964     -0.17151173      0.41332435
H       2.71007828      0.02947523      1.57377481
H       3.07611235      1.32285938      0.42881012
H       2.42034303     -0.16214262     -1.46877717
H       2.01093745     -1.46161041     -0.33684063
H      -0.19341168     -1.56705377      0.00499046
H      -3.38470687     -0.41569918      0.34154747
