17
b3lypvtz=-171080.90272459
C       0.48757682     -1.38114037      0.07952961
C       1.17637119     -0.00006212      0.00037401
C       0.48745709      0.75912232      1.15672405
C      -0.94808718      0.48030644      0.73085150
C      -0.94801098     -0.87311047      0.04955885
C      -0.94749993      0.39360023     -0.78187635
C       0.48834836      0.62202722     -1.23567608
H       0.73192541     -2.02044876     -0.77142039
H       0.73082716     -1.91819915      0.99876724
H       2.26317938     -0.00015137      0.00081265
H       0.73086668      0.34087618      2.13566996
H       0.73164929      1.82348221      1.16316913
H      -1.80492371      0.84076467      1.27960517
H      -1.80473833     -1.52872315      0.08688053
H      -1.80379643      0.68916706     -1.36894414
H       0.73237997      0.09494014     -2.16047030
H       0.73249219      1.67876791     -1.36322644
