16
b3lypvtz=-181151.20753012
C      -3.67548657     -0.21368214     -0.00000661
C      -2.31459186      0.39879910     -0.00000376
C      -1.15979809     -0.27943626      0.00000267
C       0.14142128      0.34606618      0.00000528
C       1.31454357     -0.31189343      0.00001055
C       2.60228292      0.36464255      0.00000305
N       3.76189678     -0.16608594     -0.00003156
H      -4.24871413      0.10514212      0.87553841
H      -4.24870932      0.10514011     -0.87555547
H      -3.62904239     -1.30270406     -0.00000519
H      -2.27463789      1.48511151     -0.00000770
H      -1.18270446     -1.36597540      0.00000540
H       0.15842500      1.43317618      0.00000373
H       1.32682355     -1.39882246      0.00001817
H       2.55951474      1.45689471     -0.00003275
H       3.69017289     -1.18669176     -0.00002024
