14
b3lypvtz=-203698.95410048
C       2.95048990     -0.06657948     -0.05688447
C       1.68719903     -0.06040271     -0.46331493
C       0.51160956      0.05920227      0.44807783
C      -0.55862057      1.14566439      0.10161104
C      -1.55252808     -0.02566093     -0.03521218
O      -2.72554305     -0.14324024     -0.26663323
N      -0.55848073     -0.93318828      0.22772080
H       3.77243297     -0.13961726     -0.75622336
H       3.20768758      0.00622363      0.99361590
H       1.45412708     -0.14216307     -1.52145295
H       0.83798101      0.10303789      1.48934353
H      -0.79020083      1.84475437      0.90220085
H      -0.37994721      1.68830728     -0.82458718
H      -0.58295066     -1.93524087      0.34668235
