14
b3lypvtz=-229579.07964785
C      -0.98689381      1.10177376     -0.76796973
C      -1.60960804     -0.24524625     -0.92887897
N      -0.16922935     -0.09784789     -0.87925638
C       0.60589934     -0.61515186      0.15865372
N       0.47157771     -1.74944683      0.71803119
C       1.82434873      0.20444798      0.51542446
F       1.49916590      1.54541856      0.72834039
H      -1.05896871      1.57128898      0.20392627
H      -0.93440271      1.78220754     -1.60798987
H      -2.01929673     -0.54512946     -1.88486773
H      -2.10077852     -0.67290188     -0.06109727
H      -0.33474980     -2.25327115      0.34760694
H       2.26569577     -0.19671862      1.42417481
H       2.54724024      0.17057713     -0.30279410
