13
b3lypvtz=-237039.56434365
C      -0.97680359     -0.35112862      0.21234762
C      -2.19620468     -0.13960793     -0.28257109
O      -3.28459762     -0.82981091      0.22345377
N       0.18192595      0.27883178     -0.21513600
N       1.36706903     -0.01873470      0.37496420
C       2.42600151      0.55543532     -0.01491698
O       3.63087962      0.28630042      0.54941522
H      -0.82019025     -1.06003748      1.01248397
H      -2.39279668      0.56357162     -1.08376320
H      -4.07341986     -0.55339166     -0.24646679
H       0.15209315      0.95779799     -0.96195503
H       2.50141656      1.29665709     -0.80791549
H       3.48462685     -0.37473586      1.24005980
