13
b3lypvtz=-190477.0619344
C      -0.58463504      1.13239329      0.40252140
C      -1.80809671      0.52930978      0.28427960
N      -1.59367126     -0.75822995     -0.14506681
C      -0.25979809     -0.98539919     -0.30198344
C       0.41179760      0.17811584      0.03180753
C       1.85120953      0.42677056      0.02200736
N       2.80778420     -0.35384059     -0.29057638
H      -0.40552786      2.14643714      0.71892068
H      -2.80187171      0.89874246      0.46578293
H      -2.31489828     -1.43533760     -0.31861316
H       0.10676933     -1.94117681     -0.63363136
H       2.13237004      1.43642752      0.33109813
H       2.45856826     -1.27421244     -0.56654649
