14
b3lypvtz=-201289.47464831
C      -1.04325401      0.44746471      1.16028232
C      -1.08919906     -0.60261508      0.06743151
C      -0.80039700      0.82344310     -0.28906544
N       0.54939079      0.81750793     -0.79234396
C       1.14679431     -0.42970448     -0.54597696
N       2.37226613     -0.77174142     -0.56304531
N       0.11203031     -1.31485907     -0.26054395
H      -1.98875224      0.74942874      1.59066443
H      -0.20208374      0.44500537      1.84090251
H      -2.02388657     -1.08070234     -0.18835700
H      -1.51235072      1.44033096     -0.81844263
H       1.13044398      1.62165720     -0.61662600
H       2.97409967      0.00301693     -0.82434756
H       0.37489814     -2.14823254      0.23946804
