13
b3lypvtz=-213793.56968352
C       2.47275933     -0.54493836      0.00001535
C       1.06739136     -0.04943105      0.00000625
C       0.61261111      1.23520435     -0.00001351
N      -0.77916662      1.14253655      0.00001249
H      -1.44519114      1.89419733     -0.00000193
C      -1.06735225     -0.17789766      0.00000430
O      -2.35036577     -0.58674642      0.00000411
N      -0.00684407     -0.93299388     -0.00001367
H       3.18009205      0.28432117      0.00002539
H       2.66901790     -1.16297158     -0.87877183
H       2.66900550     -1.16299076      0.87879309
H       1.12028055      2.18264937      0.00000163
H      -2.33107795     -1.55180807     -0.00001368
