17
b3lypvtz=-215283.68299746
C      -0.26764228     -1.01872407      0.77376751
C       0.73589983     -0.37591725     -0.18697838
C      -0.05159011      0.85366528     -0.68773019
C      -1.47042882      0.30782064     -0.82475114
N      -1.55875800     -0.84755767      0.09777749
O      -0.02157872      1.87493325      0.29645815
N       1.97655672      0.02704767      0.47863745
H      -0.05109741     -2.07711375      0.94240845
H      -0.21015042     -0.49994513      1.73914526
H       0.90462101     -1.05298958     -1.03213525
H       0.33609299      1.23213428     -1.64132778
H      -1.65746672     -0.01787283     -1.85306739
H      -2.19072518      1.09132261     -0.58602927
H      -2.31235928     -0.73971131      0.76011154
H       0.83538350      1.77314950      0.74224864
H       2.73558821      0.12627859     -0.18469337
H       2.26765471     -0.65652021      1.16615830
