15
b3lypvtz=-212098.22372345
C       3.44618753     -0.41003427     -0.00031907
C       2.23885384      0.51683913      0.00039251
N       0.99694675     -0.25553228      0.00067020
C      -0.09541940      0.37435449     -0.00002655
N      -1.30232617     -0.29659123      0.00029994
N      -2.45354129      0.38347590     -0.00051873
N      -3.46098618     -0.35294751     -0.00015015
H       3.43679669     -1.05232795      0.88090290
H       3.43621304     -1.05179716     -0.88192247
H       4.37487445      0.16324496     -0.00045873
H       2.27718640      1.16871420      0.88063695
H       2.27656305      1.16936246     -0.87940539
H      -0.22326969      1.46009895     -0.00088012
H      -1.33055011     -1.31300472      0.00109248
H      -4.26447690      0.27801802     -0.00086377
