11
b3lypvtz=-233898.89465021
N      -2.38919461     -0.43138518      0.11973288
C      -1.25395191      0.22473393     -0.13853401
N      -0.11013966     -0.20963452      0.27153532
C       0.97533523      0.57976015     -0.07137981
O       0.99613425      1.67666465     -0.57958774
N       2.20656387     -0.01227311      0.39330694
N       2.84821432     -0.63123238     -0.45958637
H      -3.27266070     -0.09702083     -0.21750973
H      -2.35648835     -1.28704488      0.64969754
H      -1.35890442      1.14409167     -0.71616169
H       3.71499199     -0.95665950     -0.00311332
