19
b3lypvtz=-192737.01862366
C      -2.64287470     -0.83682779     -0.29887729
N      -1.78812878      0.08540436     -0.37598856
C      -0.99840010      0.41080856      0.79814991
C       0.50254790      0.51580042      0.44845594
N       0.79537946      1.53922808     -0.55913620
C       1.07541094     -0.83605398      0.00475937
C       2.59835496     -0.84323705     -0.10517125
H      -2.82789053     -1.41377314      0.61631150
H      -3.23965883     -1.08994431     -1.17282256
H      -1.15396549     -0.30992589      1.61506339
H      -1.33131897      1.39256768      1.14918990
H       1.01574867      0.81338298      1.36868388
H       0.16338547      1.41752496     -1.34389521
H       0.61663756      2.46493128     -0.18736004
H       0.75069127     -1.60469874      0.71304718
H       0.63267575     -1.10151599     -0.95948324
H       2.93491330     -0.07902771     -0.80427624
H       3.06324989     -0.63799256      0.86243060
H       2.96391323     -1.81247717     -0.44848608
