18
b3lypvtz=-181921.54631789
C      -1.75364509      1.26545294     -0.24100874
C      -0.71089018      0.31676090      0.34056376
C      -1.06341509     -1.18184088      0.24695195
C       0.29234026     -1.79343559     -0.00206061
N       1.22342354     -0.99337194     -0.31736781
C       0.68102431      0.38218296     -0.34573530
C       1.65557875      1.36997516      0.28058865
H      -1.42786458      2.30526957     -0.17121657
H      -2.70588649      1.18550225      0.28686677
H      -1.93830381      1.04483988     -1.29512319
H      -0.56504798      0.56209482      1.39736484
H      -1.55431189     -1.57890798      1.13747055
H      -1.72738285     -1.39617621     -0.59937063
H       0.47685287     -2.86414232      0.04934193
H       0.55864534      0.64161920     -1.40502676
H       1.25860354      2.38641132      0.24147513
H       2.61035555      1.35423317     -0.24486732
H       1.84090179      1.11528477      1.32590834
