15
b3lypvtz=-193521.13802149
C      -1.84398733      0.67178863      0.45834865
H      -1.97613144      0.48217122      1.52211237
H      -2.51906155      1.46070935      0.12954866
C      -1.84321921     -0.69546921     -0.36589626
H      -2.47162992     -1.50667969     -0.00130293
H      -2.04631480     -0.50958105     -1.41929817
C      -0.31690703     -0.75548127      0.00710044
H      -0.31301493     -1.11387511      1.03781911
C      -0.34676931      0.74248304     -0.00211603
H      -0.43088918      1.03261456     -1.05722747
C       1.20868101      0.78217148      0.15157113
H       1.87668185      1.60323643     -0.07389274
C       1.24107871     -0.63857703     -0.29272519
H       1.93226167     -1.16376539     -0.93794454
O       1.71752143     -0.24014596      1.00310299
