20
b3lypvtz=-205976.03761916
C       2.93120341     -0.12212381     -0.32029813
C       1.67163372     -0.02988998      0.52984737
N       0.51925136      0.36756800     -0.27871077
C      -0.74370131      0.53851336      0.45521297
C      -1.65506523      1.49630727     -0.30775758
C      -1.39264002     -0.84429714      0.62214688
O      -1.52758665     -1.50400456     -0.62404830
H       2.80192422     -0.84340887     -1.12788057
H       3.78471047     -0.43001373      0.28500697
H       3.17525405      0.84458276     -0.76791756
H       1.83901548      0.66441673      1.36858628
H       1.46173652     -1.00482505      0.97461178
H       0.74010223      1.21799580     -0.78197558
H      -0.56211220      0.94853594      1.46121507
H      -2.59162981      1.64520560      0.23029547
H      -1.89158566      1.09640474     -1.29380494
H      -1.18238477      2.47341751     -0.43094458
H      -0.80004275     -1.45041426      1.31974692
H      -2.39126484     -0.73930240      1.05003752
H      -0.71235323     -1.29543793     -1.10428924
