16
b3lypvtz=-181108.97426
C       0.63040233     -0.02768927     -0.02255024
C       0.79651511      0.92458938     -1.16277720
C       1.03364925      2.42296431     -1.08742381
C       0.48751316      2.43202870     -2.52198580
C       1.51970391      1.68584530     -3.38229852
C       1.10288876      0.48594911     -2.55931216
N      -0.24709519      1.07794374     -2.23850176
H       0.23620255     -0.98314344     -0.37174523
H      -0.06365041      0.37111724      0.71991219
H       1.58711628     -0.21548689      0.47112044
H       0.33310696      2.88495329     -0.39082086
H       2.04185824      2.80509991     -0.90858418
H      -0.07705653      3.27286928     -2.91135654
H       1.18118045      1.58705164     -4.41351712
H       2.55844813      2.02393431     -3.36170447
H       1.20501700     -0.56092659     -2.81315476
