19
b3lypvtz=-192746.06513282
C       1.33486715      0.81594337     -0.70726526
C       0.40171734     -0.02089976      0.18594210
C       0.82742571     -1.49370459      0.12546640
C      -1.05111492      0.19440884     -0.26212134
C      -1.79227095     -0.73447213     -0.87945854
N      -1.49271057      1.49393397     -0.03065457
N       0.50761262      0.52052163      1.56341528
H       1.06080446      1.86823978     -0.67502139
H       2.37032629      0.71221090     -0.37284389
H       1.27667416      0.47592265     -1.74066830
H       0.17815611     -2.11792531      0.74087076
H       1.84827087     -1.58862927      0.50015763
H       0.81028022     -1.88477552     -0.89226557
H      -1.40878959     -1.71284627     -1.11306226
H      -2.80594574     -0.51791122     -1.19228561
H      -1.10220740      1.89562642      0.81028255
H      -2.48664608      1.63248567     -0.11920307
H       1.48117773      0.56396466      1.84268924
H       0.04237259     -0.10209380      2.21602584
