17
b3lypvtz=-215243.40432522187
C      -0.04074568     -1.52802887      0.51143319
C      -0.07171697     -0.35900540     -0.48564934
C      -1.48932485      0.00211238     -0.83480110
N      -2.09495225      0.99245305     -0.24867964
O      -3.28627578      1.39223819     -0.39358318
N       0.60826471      0.82755664      0.05218190
C       1.98968741      0.62604454      0.48334765
H      -0.44582619     -1.21328174      1.47429314
H      -0.64991166     -2.35059085      0.13716748
H       0.97110570     -1.90546962      0.65939016
H       0.41492000     -0.71172314     -1.41062333
H      -2.07255698     -0.58376027     -1.53039469
H      -1.50234695      1.50768850      0.41793427
H       0.59633075      1.54363534     -0.66537738
H       2.43594152      1.59794647      0.69071886
H       2.61444274      0.11387323     -0.26288652
H       2.02296447      0.04831157      1.40552854
