14
b3lypvtz=-203684.859127
C      -3.39831779     -0.22192714      0.27302227
N      -2.32188416     -0.32801520     -0.39140356
C      -1.16876350      0.27055093      0.11754124
C      -0.00508482      0.18814274     -0.53082018
C       1.28242992      0.78118075     -0.04539428
C       2.24983636     -0.30320811      0.40326773
O       3.32782547     -0.50219875     -0.08880423
H      -4.30576863     -0.68030320     -0.10828809
H      -3.46623737      0.31396131      1.22695833
H      -1.24605493      0.81913033      1.06012341
H       0.01713231     -0.36259666     -1.46431028
H       1.77461079      1.36452543     -0.82531039
H       1.09402175      1.42995659      0.81613064
H       1.87948058     -0.92877001      1.24217639
