13
b3lypvtz=-237026.13814467
C      -1.49004434     -0.30237531      0.26257466
C      -0.65848406      0.65936187     -0.63413838
C       0.55035139     -0.09062302     -0.09079480
N       1.77965094     -0.03113687     -0.39947145
O       2.50521672     -0.99774936      0.36593296
N      -0.21358713     -0.82725447      0.78646623
O      -0.80910638      2.00840119     -0.25681555
H      -2.08992299     -1.02472523     -0.29302017
H      -2.09856442      0.20670522      1.00858444
H      -0.81170373      0.51789679     -1.70700951
H       3.40536163     -0.86513369      0.05581556
H      -0.00750459     -1.75885101      1.10894437
H      -0.06166306      2.50548386     -0.60605277
