20
b3lypvtz=-182677.26103502
C      -2.06688659     -0.79411509     -0.92211152
C      -1.24026213     -0.18896892     -0.06098278
N      -1.65197994      0.26115686      1.19664285
C       0.19817347      0.13262039     -0.42079596
C       0.44031580      1.65068185     -0.45844266
C       1.19349122     -0.60218472      0.50463346
C       2.64048094     -0.57963711      0.01001220
H      -3.09280889     -1.02481238     -0.66275141
H      -1.73823136     -1.04841744     -1.91817247
H      -2.53399147     -0.11383266      1.51038779
H      -0.95358160      0.21705525      1.92206082
H       0.35057085     -0.25860930     -1.42936501
H      -0.27132727      2.13471012     -1.12778760
H       1.44487345      1.88099864     -0.81410990
H       0.31974107      2.09649915      0.53000431
H       1.15855009     -0.16759577      1.50957207
H       0.86801339     -1.64076907      0.60465728
H       3.04427087      0.43256014     -0.03083306
H       3.28509287     -1.16169743      0.67056885
H       2.71850823     -1.00987450     -0.99090326
