16
b3lypvtz=-181092.67780131
C       2.74190582      0.39720928     -0.16091213
C       1.45542914      0.68525526     -0.32904180
C       0.35295457     -0.25680614     -0.01455094
C      -0.93250814      0.26135063      0.70770762
C      -1.68060425     -0.98728596      0.17874103
C      -0.85929295     -0.39221334     -0.99167744
N      -1.26964839      1.01201827     -0.57243833
H       3.51871066      1.11109931     -0.40150426
H       3.06670273     -0.56343665      0.22347094
H       1.15701505      1.65221649     -0.71496843
H       0.72531928     -1.20758305      0.36726518
H      -0.99809487      0.73583683      1.68566475
H      -2.76324267     -0.88752186      0.09373802
H      -1.39206483     -1.96601014      0.56756295
H      -0.83780418     -0.69598330     -2.03718476
H      -2.28487697      1.10175436     -0.65057240
