16
b3lypvtz=-204451.42150001
C       0.10726919      1.93524251     -0.17775522
C       0.25754828      0.62129874     -0.09027219
C       1.28789920     -0.11103809      0.71666806
C       2.28938793     -0.89079217     -0.14729468
O      -0.55144220     -0.21580569     -0.87019720
C      -1.68875661     -0.73897781     -0.31518882
N      -2.23922796     -0.48854960      0.78613750
H       0.76160662      2.59921845      0.36831440
H      -0.65728126      2.37086067     -0.80498188
H       0.77877162     -0.80571828      1.39167855
H       1.81451200      0.61122180      1.34169730
H       2.85631695     -0.21660289     -0.79058959
H       2.99467230     -1.43151623      0.48465939
H       1.77972578     -1.61451607     -0.78227303
H      -2.11118977     -1.46059698     -1.00772716
H      -1.74819106      0.22776066      1.32004258
