12
b3lypvtz=-202945.88353257
C       1.83014442     -1.02116545      0.01051107
C       0.57822494     -0.57208370     -0.00650589
N      -0.60877329     -1.30430140     -0.03027555
C      -1.68092973     -0.44380921      0.00565265
C      -1.30307408      0.85700096      0.01059202
C       0.15508275      0.89396620     -0.00059084
O       0.91959468      1.83970706     -0.00615606
H       2.63248018     -0.29765096      0.02931492
H       2.08012903     -2.07353426      0.00710570
H      -0.67399023     -2.29949741      0.07488737
H      -2.68141480     -0.84872563      0.01677232
H      -1.95065286      1.71566578      0.01500330
