12
b3lypvtz=-249702.91315708
N      -1.75611894      0.70879124      0.28909740
C      -0.65389722     -0.09286047     -0.05653888
C      -0.77294688     -1.36789214     -0.43547776
F       0.23536446     -2.05883249     -1.00648308
N       0.54031714      0.62927695     -0.02794679
N       1.72318979      0.05490254      0.21891826
N       2.68216323      0.83786807      0.05492021
H      -1.72844783      1.04171741      1.24529885
H      -2.64473908      0.27809218      0.08220623
H      -1.68577874     -1.93510737     -0.33383645
H       0.54307021      1.60162559     -0.32598493
H       3.51782386      0.30221850      0.29582694
