15
b3lypvtz=-214511.82462647
N       2.96457094     -0.32641847      0.50759326
C       2.21068887      0.66108662     -0.12532861
C       0.94295975      0.51035369     -0.52319584
N       0.23763629     -0.69626742     -0.30793876
C      -1.16021007     -0.69124543     -0.18688353
C      -1.91247120      0.35176920      0.17092204
O      -3.28216516      0.33481574      0.31617136
H       3.69687657      0.02639829      1.10412821
H       2.39268268     -1.01118953      0.98509042
H       2.74072400      1.57300605     -0.36441096
H       0.42799989      1.30521727     -1.05095332
H       0.58731827     -1.48238028     -0.83557833
H      -1.62443264     -1.65339566     -0.37546821
H      -1.50410398      1.32284964      0.40650882
H      -3.61766921     -0.53832971      0.08718945
