19
b3lypvtz=-195135.71715559
C       2.15305233     -0.52399533     -0.80916093
C       0.99248599     -0.67415464      0.14665037
C       0.86678231      0.19049717      1.37618311
C      -0.14290863      0.32659578      0.26371801
C      -0.16344782      1.58869803     -0.57396766
C      -1.51569159     -0.25653552      0.52731739
O      -2.19561504     -0.66109739     -0.65987254
H       1.89361054     -0.86739944     -1.81345208
H       2.48705226      0.51011816     -0.88985674
H       3.00675551     -1.11441814     -0.46885151
H       0.69128306     -1.70738895      0.29240433
H       0.55983012     -0.26826572      2.30750004
H       1.58447966      0.99263611      1.49456363
H      -0.71981368      2.37519770     -0.05765388
H       0.83647653      1.97145991     -0.77200689
H      -0.65688166      1.41052141     -1.53050215
H      -1.43438994     -1.09442116      1.23071172
H      -2.16338513      0.49430801      0.98527007
H      -1.65345281     -1.32328902     -1.10073929
