11
b3lypvtz=-189655.7263804
C       2.61795447     -0.20795600      0.38853077
C       1.50756858     -0.12798723     -0.05907942
C       0.18324839     -0.05871227     -0.60906434
C      -0.97697255      0.21017406      0.30993949
N      -0.80689662     -1.10631289     -0.31751181
C      -2.09445732      1.00699498     -0.13117740
N      -2.97156285      1.67024027     -0.47001006
H       3.60202868     -0.27384158      0.78207904
H       0.11313454      0.32786976     -1.61831188
H      -0.73984063      0.32032871      1.36072780
H      -0.43420470     -1.76079781      0.36387779
