14
b3lypvtz=-203699.45270068
C       2.45035671      0.12179379     -0.00003726
C       1.45266903     -0.76123882      0.00002405
N       0.09792684     -0.45056487      0.00010202
C      -1.09393441     -1.31376110      0.00002388
C      -1.95470026     -0.02379439     -0.00009945
C      -0.61772227      0.73544642      0.00002155
O      -0.26667958      1.88516677      0.00000761
H       2.27047014      1.18604636     -0.00000772
H       3.47044765     -0.23146399     -0.00012254
H       1.64317600     -1.82787001      0.00000317
H      -1.18309439     -1.93386746     -0.89273697
H      -1.18340402     -1.93374256      0.89284502
H      -2.55900031      0.13901087     -0.89012687
H      -2.55919215      0.13901999      0.88979752
