10
b3lypvtz=-178837.67152802
C      -2.64316958      0.06242317     -0.27791773
C      -1.19898542      0.02771053     -0.17898691
C       0.00716187     -0.00087896     -0.09600197
C       1.35650615     -0.03253645     -0.00286842
C       2.56658689     -0.06074855      0.08088162
C       3.92271035     -0.09223365      0.17489981
N       5.07811276     -0.11903289      0.25504089
H      -2.96308713      0.79496374     -1.02176776
H      -3.03518793     -0.91340259     -0.57167899
H      -3.09064794      0.33373567      0.68041534
