17
b3lypvtz=-191997.30082984
C       2.44193482     -0.03334197     -0.08517123
C       0.94013007     -0.09888940      0.00599503
N       0.35977303     -1.23510300      0.07245090
C      -1.09812620     -1.26238723      0.16259594
C      -1.79230396     -0.00513220     -0.36893285
C      -1.12246530      1.23350796      0.21771408
N       0.30813479      1.12806248     -0.02058258
H       2.84191062     -1.04252593     -0.09986905
H       2.75450139      0.49214578     -0.99057973
H       2.86143104      0.50330018      0.77019708
H      -1.37749244     -1.42773088      1.20993677
H      -1.45091241     -2.14095506     -0.38219814
H      -2.85534782     -0.01371313     -0.12121536
H      -1.70820365      0.02744595     -1.45767301
H      -1.49510548      2.14396296     -0.25497127
H      -1.34545415      1.30492138      1.28997856
H       0.87474864      1.94632613      0.11654988
