16
b3lypvtz=-181117.18079752
C      -2.23599878     -0.19828856     -0.18949723
C      -0.82135967      0.12152684      0.17513376
C       0.26163056     -0.89654180      0.59970102
C       1.28060770     -0.02676770     -0.14332713
C       2.55948462     -0.17099176     -0.45505233
C       0.22732275      0.95989004     -0.52554530
N      -0.48343005      1.44228302      0.67338836
H      -2.72750035      0.68005640     -0.60662092
H      -2.28098612     -1.00789837     -0.92032338
H      -2.80049299     -0.51119248      0.69314316
H       0.38610871     -1.03364277      1.67681570
H       0.14877251     -1.87515165      0.12996323
H       3.06528475      0.54067914     -1.09566762
H       3.14125789     -1.00804507     -0.09050169
H       0.17298448      1.56117148     -1.42270744
H       0.10631398      1.42291325      1.50109784
