18
b3lypvtz=-181898.52482134
C       2.06473811     -0.15486633      0.41898348
C       0.58033459     -0.11707879      0.17324388
C      -0.21444758     -1.30008411     -0.44511216
C      -1.36279686     -0.59101216      0.30558984
C      -1.52236208      0.72331011     -0.48817030
C      -0.01207583      1.09405685     -0.59195401
N      -0.34244683     -0.27225964      1.35455552
H       2.34010160     -1.04254813      0.98865142
H       2.39007842      0.72409376      0.98155227
H       2.61298322     -0.16448241     -0.52580369
H       0.05229584     -2.25048012      0.01002414
H      -0.27157475     -1.37498810     -1.53043367
H      -2.26309764     -1.11253401      0.62268652
H      -1.99730401      0.57830176     -1.45961423
H      -2.10574929      1.46232555      0.06285057
H       0.23209412      2.03505909     -0.09543001
H       0.34501233      1.15728320     -1.62107308
H      -0.52568334      0.60600347      1.83935353
