12
b3lypvtz=-202906.97379735
N      -3.07541510      0.70586617     -1.06729299
C      -2.50368725     -0.26470665     -0.47359746
C      -1.14005067     -0.32118908     -0.04275522
C       0.00085018     -0.39804000      0.33783860
C       1.39226075     -0.45223253      0.75124622
C       2.30210334      0.43591133     -0.09799360
O       3.42203383      0.13058674     -0.39722382
H      -2.42167547      1.47781151     -1.20996066
H      -3.10066422     -1.15275242     -0.26433405
H       1.48205479     -0.09304487      1.78487216
H       1.78543351     -1.47006285      0.73293955
H       1.85665630      1.40175264     -0.40663873
