15
b3lypvtz=-193611.60278046
O       0.75258007      1.70536358      1.54683004
C       0.77612720      0.80283574      0.75614200
C       1.89542033     -0.02620734      0.10405990
C       0.79450093     -0.82242713     -0.66844547
C      -0.27953091      0.03978296      0.01561520
C      -1.55188522      0.63290550     -0.54200182
C      -1.62638281     -0.34942477      0.57772657
H       2.57414816      0.56381600     -0.51214525
H       2.48474224     -0.60262026      0.81744030
H       0.75250185     -1.88164972     -0.41921047
H       0.84247856     -0.71376553     -1.75086593
H      -1.73555597      1.67608818     -0.32264667
H      -1.84600382      0.30878614     -1.53129493
H      -1.86125024      0.01763018      1.56777367
H      -1.97189038     -1.35141352      0.36102286
