17
b3lypvtz=-171050.24593749
C       2.11374494      0.12761174      0.00000009
C       0.80091045     -0.62862241      0.00000016
C      -0.35536142     -0.30549973     -1.02130693
C      -0.67346655      1.15123846     -0.66646081
C      -0.67346640      1.15123869      0.66646066
C      -0.35536135     -0.30549949      1.02130722
C      -1.28847167     -1.03874565      0.00000027
H       2.70675163     -0.13230362     -0.88007838
H       1.96272501      1.20668527     -0.00000061
H       2.70675112     -0.13230254      0.88007925
H       0.99841682     -1.70367755      0.00000033
H      -0.29936268     -0.58911871     -2.06973755
H      -0.84567736      1.96087640     -1.35814668
H      -0.84567741      1.96087680      1.35814642
H      -0.29936252     -0.58911814      2.06973795
H      -2.34018273     -0.75699632      0.00000021
H      -1.17063487     -2.12355222      0.00000040
