17
b3lypvtz=-215292.98665372
C      -1.16581004      1.61808466     -0.45660276
C      -0.56878503      0.52619000      0.43341896
C      -1.56449095     -0.61699985      0.68002517
O      -1.86500972     -1.32144196     -0.51290863
N       0.60662435     -0.05331537     -0.20730848
C       1.74675976      0.15674122      0.30219109
N       2.90109716     -0.40436955     -0.17965648
H      -0.43756911      2.40983734     -0.63644989
H      -2.04505086      2.06008440      0.01611562
H      -1.46594521      1.20067096     -1.41699940
H      -0.31273552      0.96157898      1.41197478
H      -1.14726402     -1.29321893      1.43735293
H      -2.50710259     -0.22198870      1.06355283
H      -1.01505508     -1.46385423     -0.95038260
H       1.89970578      0.77221399      1.19686418
H       3.77079307      0.04719124      0.04306121
H       2.84583903     -0.82091821     -1.09573753
