15
b3lypvtz=-191215.6889034
N      -2.75035019      0.21487433     -0.56044670
C      -1.82316898     -0.07048912      0.05816762
C      -0.62301261     -0.41453940      0.82081763
C       0.64509503      0.12617275      0.17057182
N       0.65709092      1.56990066      0.14278140
C       1.29626541     -0.70294461     -0.91221634
C       1.92708960     -0.58745715      0.46057749
H      -0.72012592      0.00512516      1.82440751
H      -0.57529308     -1.50089751      0.91249058
H       0.03958972      1.92557459     -0.57928172
H       1.58453963      1.92758794     -0.04359979
H       0.85298610     -1.64899980     -1.19347573
H       1.76438733     -0.16792546     -1.72682062
H       1.90552706     -1.45225515      1.10994202
H       2.82156798      0.01324277      0.56103184
