11
b3lypvtz=-267190.39453359
C      -0.52063178      1.56844926      0.17992275
C      -0.01730100      0.35568013     -0.03482370
C      -0.54499874     -0.89294535      0.63051126
F      -1.36715485     -0.56382842      1.67223871
F      -1.29312753     -1.61278845     -0.26012904
N       1.07420184      0.25848338     -0.93949429
N       1.54287175     -0.88908743     -1.05471703
H      -1.33663783      1.72609044      0.86820879
H      -0.10042456      2.41661782     -0.34174750
H       0.24379080     -1.54232292      1.00526222
H       2.31941190     -0.82434847     -1.72523216
