14
b3lypvtz=-224610.60237317
C      -2.85560008     -0.33024894      0.00721020
N      -1.46173275     -0.69601486     -0.03482572
C      -0.44364356      0.21254792      0.02926095
N      -0.53622164      1.48800206      0.06865726
N       0.80401474     -0.46665244      0.04955240
C       1.85092829      0.23859740     -0.04040980
O       3.07222424     -0.30491326     -0.01559208
H      -3.10713244      0.22164597      0.91908259
H      -3.46003770     -1.23438478     -0.02112808
H      -3.13389072      0.28855267     -0.85080672
H      -1.19366738     -1.66155605      0.02488349
H      -1.49964189      1.80563642      0.04944972
H       1.86833534      1.32020296     -0.14121636
H       2.96088856     -1.26296908      0.08369015
