15
b3lypvtz=-191174.71613039
C       2.25181799      0.29618561     -0.82488679
N       1.49718513     -0.54636897     -0.25306594
C       0.22238363     -0.17538204      0.18501690
C      -0.37754046     -0.87482071      1.39361296
C      -1.08639555     -0.97723347      0.09791805
N      -1.87759693      0.25103775     -0.11348840
C      -0.61137463      1.06733382     -0.15901777
H       1.97736938      1.33972064     -1.00621128
H       3.23573963     -0.02080196     -1.15843180
H      -0.81485394     -0.28875078      2.19368763
H       0.18713525     -1.74595502      1.69412410
H      -1.29785406     -1.90728992     -0.40997843
H      -2.31210267      0.24103275     -1.02816852
H      -0.59396714      1.89725791      0.54980856
H      -0.39994565      1.44403440     -1.16091928
