12
b3lypvtz=-249555.21190357
C      -1.89239868     -0.13835607      0.61558579
O      -0.97291035      0.89626148      0.20503170
C       0.25514507      0.51489665     -0.14031990
N       0.63218251     -0.70243515     -0.11938299
C       1.93640925     -1.03051126     -0.49443252
O       2.34355465     -2.16368401     -0.49344552
O       1.00230833      1.56950387     -0.49903186
H      -1.50377420     -0.65827701      1.48774808
H      -2.03763443     -0.85054016     -0.19293432
H      -2.81576174      0.38236642      0.84930330
H       2.58567107     -0.19007675     -0.79608025
H       0.46720853      2.37085202     -0.42204148
