17
b3lypvtz=-191965.65538902
C      -3.26668659      0.00003217     -0.19262757
N      -2.18847041      0.00004175      0.47589209
N      -1.04457025      0.00003865     -0.35368267
C       0.03454265      0.00003307      0.32023432
C       1.37815621      0.00001274     -0.33945975
C       2.15718642      1.26785543      0.04473062
C       2.15714548     -1.26785430      0.04473401
H      -3.27681966     -0.00008558     -1.28217877
H      -4.20358049     -0.00006556      0.35288944
H      -0.00430599      0.00003310      1.41354719
H       1.20751539      0.00001394     -1.41752990
H       2.31838568      1.31867205      1.12422296
H       1.62346767      2.16869109     -0.25983261
H       3.13555492      1.27251925     -0.43853579
H       3.13551394     -1.27255131     -0.43853214
H       1.62339717     -2.16867322     -0.25982693
H       2.31834287     -1.31867328      1.12422652
