20
b3lypvtz=-210985.05504927
C      -2.25427558     -0.05726572     -0.68073326
C      -1.53092185     -0.65838672      0.52849378
C      -0.01494452     -0.39624054      0.66756073
C       0.38241007      1.09122919      0.82345031
C       0.58804667      1.90667545     -0.45781972
C       0.76376774     -1.10814403     -0.42652195
F       2.14047369     -0.99859346     -0.19004919
H      -2.25324007      1.03220327     -0.65458568
H      -3.29685879     -0.37965927     -0.69088098
H      -1.81025862     -0.36827486     -1.62777016
H      -2.01208035     -0.29304923      1.43941311
H      -1.68659785     -1.74193466      0.52706038
H       0.27596534     -0.88768923      1.60188678
H       1.31368652      1.12875370      1.39157733
H      -0.37057873      1.57780617      1.45029151
H      -0.29109189      1.91663729     -1.10123463
H       1.42615391      1.52303679     -1.04063433
H       0.81904469      2.94293812     -0.20522976
H       0.57801937     -0.68889009     -1.41633242
H       0.52395926     -2.17372716     -0.44534385
