15
b3lypvtz=-193585.49528018
O       3.12119069     -1.52420105      0.39441500
C       2.43207579     -1.09226623     -0.77882528
C       1.21086211     -0.34078406     -0.50403381
C       0.22060622      0.29742897     -0.25339399
C      -0.96555341      1.04767846      0.04024698
C      -1.89797302      0.59472715      1.15007074
C      -2.33271503      0.46697151     -0.27484563
H       3.20220128     -0.76758973      0.98378068
H       3.08970571     -0.48962056     -1.41750013
H       2.19651243     -2.00283426     -1.33255903
H      -0.87123068      2.11938122     -0.08449545
H      -2.34559538      1.36619621      1.76069691
H      -1.62400667     -0.30504665      1.68094788
H      -3.08133307      1.14988660     -0.65109228
H      -2.35464697     -0.51982759     -0.71341258
