16
b3lypvtz=-181101.92826987
C       2.73720400     -0.21732557      0.04862318
N       1.55542252     -0.64403731      0.16148366
C       0.48124127      0.29361070      0.00426496
C      -0.75888342     -0.15598934     -0.83133401
C      -1.12521815     -1.12628529      0.32689776
C      -0.71078959      0.20763439      1.00959268
C      -1.55401713      0.93936856     -0.06983003
H       2.98192640      0.83157165     -0.16440821
H       3.57041356     -0.90698476      0.16240386
H       0.83438180      1.31263123     -0.20543696
H      -0.77051183     -0.36176692     -1.90043934
H      -2.17864547     -1.39418800      0.40649869
H      -0.46908148     -1.97727028      0.47739549
H      -0.66620693      0.42401636      2.07572773
H      -1.29501781      1.97754848     -0.28178856
H      -2.63221774      0.79746613     -0.01359620
