16
b3lypvtz=-181143.28363541
C      -0.70420498      2.04688843     -0.27103218
C       0.07745534      1.16772691      0.35030103
C       0.17720569     -0.27471587      0.06162419
C       1.53452085     -0.84859868     -0.06103822
N       2.65179584     -0.24288855     -0.08041670
C      -0.86606487     -1.11661494     -0.05482769
C      -2.32267657     -0.82074733      0.07669663
H      -0.70916836      3.09052529      0.01476414
H      -1.34912012      1.76240177     -1.09225239
H       0.73553990      1.52904724      1.13655983
H       1.56004289     -1.93735936     -0.14968982
H       2.52603162      0.76880402     -0.01046029
H      -0.62233831     -2.15718022     -0.25247830
H      -2.51125502      0.16157374      0.50468069
H      -2.80619880     -1.57846170      0.69803057
H      -2.81780910     -0.86278774     -0.89880248
