14
b3lypvtz=-180401.98916756
C       2.36905795      0.01001670     -0.00000161
C       1.01986391      0.04043747     -0.00000032
C       0.21617638      1.24939055      0.00000067
C      -1.13437089      1.21470035      0.00000033
C      -1.84463296     -0.03491201     -0.00000087
C      -1.11291220     -1.17090315     -0.00000108
N       0.25158439     -1.13776245      0.00000056
H       2.93219353      0.92941676     -0.00000187
H       2.92120283     -0.91957470     -0.00000237
H       0.74816464      2.19043398      0.00000118
H      -1.69431983      2.14109750      0.00000092
H      -2.92204085     -0.07582186     -0.00000146
H      -1.55377601     -2.15764689     -0.00000178
H       0.75192410     -2.01010125     -0.00000230
