15
b3lypvtz=-214537.58879122
C       0.37412678     -1.04115221      0.21958484
C      -1.01707286     -0.44922337      0.49681196
C      -1.11911399      0.66237120     -0.56274259
N       0.26155760      1.11662066     -0.64025730
C       1.17276872      0.11814404     -0.36724073
N       2.41792005      0.23572430     -0.60226053
O      -1.13348954      0.06463018      1.81790518
H       0.82958366     -1.45038381      1.11963987
H       0.31778227     -1.83938160     -0.52493739
H      -1.81677362     -1.18017966      0.40043805
H      -1.48744829      0.26173516     -1.51610052
H      -1.79186139      1.45469176     -0.23630973
H       0.54716237      1.87521270     -1.23764242
H       2.92219535     -0.59131646     -0.29665423
H      -0.47733711      0.76250711      1.92976554
