11
b3lypvtz=-215375.40679144
C       2.20246384      0.23861379      0.90095001
C       1.03202221      0.09323694      0.68303874
C      -0.37691470     -0.07798638      0.36094260
C      -0.60511254     -1.31945387     -0.51392188
O      -1.35731166     -2.20023500     -0.21000410
C      -0.92085258      1.18075866     -0.33753606
O      -1.58847978      1.14573781     -1.33219851
H       3.23666561      0.36058805      1.10911541
H      -0.96211692     -0.21054030      1.27822864
H      -0.01378667     -1.34172063     -1.44654317
H      -0.64657682      2.13100093      0.15742833
