9
b3lypvtz=-212241.10212113
N      -1.02884847      2.35790334      0.66078827
C      -0.64968177      1.36362502      0.22961562
C      -0.15682368      0.10855842     -0.33315736
C      -1.09709350     -0.99994344     -0.15900730
N      -1.78338248     -1.91094502     -0.01885226
C       1.24761656     -0.29271076      0.22516135
O       1.92931277      0.44194642      0.86558117
H      -0.00720675      0.24859845     -1.41213526
H       1.54620732     -1.31703242     -0.05789422
