14
b3lypvtz=-203648.50828129
C      -2.85283540     -0.45092719      0.22129475
C      -1.61442155     -0.67764052     -0.20678528
C      -0.48499596      0.25283086     -0.08519900
C      -0.55290528      1.58266771     -0.07065440
O       0.68610698     -0.48863113     -0.00883639
N       1.85281795      0.28259631     -0.02222710
C       2.87439496     -0.45099811      0.12229962
H      -3.63705027     -1.17868824      0.06505001
H      -3.12184134      0.45963578      0.74041143
H      -1.37352954     -1.62396119     -0.67906764
H      -1.51371081      2.05873392     -0.18631767
H       0.32508399      2.19715141      0.03261973
H       3.83216063      0.05155838      0.11509975
H       2.81807665     -1.52929898      0.24689218
