15
b3lypvtz=-214478.59646871
C      -2.35911763      0.30330605      0.11318672
C      -0.95985042      0.32039512      0.59572192
N      -1.73192407     -0.93093095      0.61465231
C       0.21600761      0.36438465     -0.35740976
C       1.40578655     -0.36004620      0.18899881
N       2.49642794      0.25861692      0.37806041
O       3.48689186     -0.59143261      0.90614503
H      -2.55853692      0.31064263     -0.95157992
H      -3.11532642      0.78792647      0.71888245
H      -0.78513423      0.80719250      1.55004506
H      -2.05833474     -1.13927980      1.55166623
H      -0.08875624     -0.10604937     -1.29676595
H       0.49378145      1.39795577     -0.57056495
H       1.31309287     -1.41820560      0.43134199
H       4.24499239     -0.00447556      0.98845400
