13
b3lypvtz=-213745.44471439507
C      -1.81603665      0.85217940     -0.08138627
C      -0.60519367      0.01012136      0.14753813
C       0.54320162      0.11174896     -0.53691857
C       1.70168096     -0.71615280     -0.29450349
N       2.78837377     -0.57252830     -0.98970543
N       3.73597892     -0.43943557     -1.60396404
O      -0.69980235     -0.93699089      1.14452968
H      -2.08487238      1.41043704      0.82222413
H      -1.64960948      1.56943539     -0.88231380
H      -2.67996006      0.23575179     -0.35344931
H       0.60907118      0.85638557     -1.31689343
H       1.72873510     -1.48418908      0.46177064
H      -1.57156696     -0.89676288      1.54663056
