13
b3lypvtz=-237041.53716441
C       1.60053714      1.45885531     -0.23246045
C       1.12428788      0.24136513      0.02722645
N       1.92515585     -0.91305644      0.22878817
C      -0.31705247     -0.08447350     -0.01289535
O      -0.64610309     -1.36625157     -0.35384050
N      -1.21088097      0.78322339      0.25698288
O      -2.52173083      0.34400868      0.12334571
H       2.65898083      1.67301601     -0.16892499
H       0.93127581      2.25596981     -0.51390613
H       1.76208926     -1.36018286      1.12400090
H       2.91155117     -0.72466536      0.11952991
H       0.18060866     -1.82598033     -0.56796218
H      -2.50008224     -0.57795625     -0.18216343
