10
b3lypvtz=-223093.71045639
C      -1.31250068     -0.03425030     -0.06289066
N      -2.11789515      0.16696114     -1.01495739
N       0.05796769      0.07683508     -0.29953241
C       1.01193819     -0.12201737      0.66152031
O       0.80354356     -0.41360863      1.81490120
C       2.38336473      0.05738807      0.14977048
N       3.46518373      0.19013076     -0.21800467
H      -1.54655151     -0.29484461      0.96672979
H      -3.08012809      0.05490977     -0.70917410
H       0.33507757      0.31849609     -1.24131814
