19
b3lypvtz=-171839.10346483
C       2.63069419     -0.00000067      0.11398882
C       1.15119277     -0.00000016      0.41611758
C       0.19894897     -0.75922888     -0.46844794
C      -1.12411673     -1.23236112      0.13180983
C      -2.05567756      0.00000059      0.07806436
C      -1.12411605      1.23236181      0.13180902
C       0.19894938      0.75922845     -0.46844847
H       3.12168861      0.88278775      0.53033744
H       3.12168813     -0.88278904      0.53033808
H       2.81011025     -0.00000111     -0.96315492
H       0.90804971      0.00000030      1.47525903
H       0.61854780     -1.30922308     -1.30115856
H      -0.98728751     -1.57383770      1.16159719
H      -1.53711007     -2.07322458     -0.42631529
H      -2.80785664      0.00000106      0.86882243
H      -2.59036519      0.00000042     -0.87467870
H      -1.53710893      2.07322516     -0.42631661
H      -0.98728661      1.57383895      1.16159617
H       0.61854848      1.30922186     -1.30115947
