14
b3lypvtz=-180361.55470983
C       2.25629261     -1.43379264      0.00002350
C       1.19302158     -0.87277509      0.00001251
C      -0.04005835     -0.14979963      0.00000622
C       0.05898754      1.32929153     -0.00001041
N       1.11843874      2.02818193     -0.00001569
C      -1.21185130     -0.81894671      0.00001657
C      -2.59789343     -0.26560225      0.00001276
H       3.18524343     -1.94764614      0.00002806
H      -0.88696750      1.86602305     -0.00001186
H       1.94703830      1.42749631     -0.00001078
H      -1.15286557     -1.90199668      0.00002923
H      -3.14460792     -0.63013232      0.87448104
H      -3.14460939     -0.63014824     -0.87444803
H      -2.64524473      0.81948389      0.00000288
