10
b3lypvtz=-248810.06939076
O       1.09203567      1.81180419      0.91009237
C       0.06688792      1.30271254      0.54921378
N      -0.00002065     -0.00011907     -0.00000612
C       1.18003371     -0.76814632     -0.14540937
O       1.18993403     -1.87713758     -0.60404174
C      -1.24692459     -0.53471715     -0.40374993
O      -2.28174127      0.06517077     -0.30569576
H      -0.92073497      1.77342621      0.59939889
H       2.06334083     -0.22600095      0.20885186
H      -1.14281067     -1.54699264     -0.80865396
