13
b3lypvtz=-216151.00991307
C       2.36433851      0.03342940     -0.00001392
C       0.87944936      0.07622324     -0.00000055
C       0.13810823      1.17737116     -0.00000405
O      -1.25199739      1.19087774      0.00000759
C      -1.79529480     -0.07863630     -0.00001494
C      -1.07068132     -1.18627429     -0.00001148
O       0.31507024     -1.19898423      0.00001591
H       2.73130754     -0.50003075      0.88026470
H       2.78204896      1.03859514     -0.00002142
H       2.73129239     -0.50003802     -0.88029441
H       0.56082098      2.16803918     -0.00001924
H      -2.87274206     -0.07947964     -0.00003822
H      -1.50164064     -2.17365465     -0.00003196
