15
b3lypvtz=-214535.22262242
C       1.41768789     -0.20779364     -1.20429749
C       0.58791053      0.05120053      0.04811379
N       1.16215377     -0.45900746      1.28521562
C       0.00210382      1.49967904      0.16984216
N      -1.32587783      0.90595407     -0.04098801
C      -0.89900465     -0.38842254     -0.07274073
O      -1.46038845     -1.45110313     -0.14476947
H       0.94780839      0.20864198     -2.09728400
H       1.54028343     -1.28131388     -1.35456007
H       2.41012484      0.23941872     -1.10358674
H       2.17077709     -0.35755548      1.28917412
H       0.95895484     -1.44894142      1.37047632
H       0.30061299      2.20243581     -0.60908298
H       0.14354589      1.93227255      1.15905253
H      -2.25641555      1.29055486      0.02069194
