16
b3lypvtz=-204420.0948842
C      -1.34135002     -1.41091978     -0.35788085
C      -0.31981367     -0.37371775     -0.00626709
N       0.51265564     -0.53736454      1.19464181
C       1.69476362      0.04780490      0.49269633
C       0.87591794      0.22364909     -0.77965351
C      -0.33282713      1.04945072     -0.49199129
O      -0.21912149      2.15768693      0.36574750
H      -2.15822854     -1.41274403      0.36989139
H      -1.77239680     -1.22208162     -1.34239324
H      -0.89622802     -2.40706712     -0.35801989
H       0.19339143      0.03233036      1.97299614
H       2.49314420     -0.68832083      0.39711588
H       2.09313579      0.96416459      0.93060249
H       1.21955307      0.02908911     -1.78560926
H      -0.96221770      1.21946219     -1.36213762
H      -1.08037833      2.32867779      0.76026121
