16
b3lypvtz=-202059.88856779
C      -2.24385583     -0.44152813     -0.57821070
C      -1.12810296      0.23951076      0.16606391
N      -0.91601133      1.49521697      0.19657662
C      -0.14949364     -0.66903445      0.88884479
N       0.83149717     -1.23299161     -0.04309496
C       1.78322962     -0.46708908     -0.41884405
N       2.01309264      0.83868373     -0.08129923
H      -2.92081480     -0.93081528      0.12706414
H      -2.81594592      0.26105038     -1.18391057
H      -1.83619332     -1.22460599     -1.22018662
H      -1.60519923      2.00452175     -0.35795801
H       0.32771435     -0.09401317      1.68957565
H      -0.68886382     -1.50210870      1.34320430
H       2.54837812     -0.90133677     -1.06101398
H       1.22559230      1.40706280      0.21069608
H       2.74321465      1.32047280     -0.57586739
