13
b3lypvtz=-239478.66656653
C      -2.35796153      1.07236457      0.00000111
C      -1.28796980      0.03025765     -0.00000147
O      -1.68819952     -1.27756392     -0.00001418
C       0.00870506      0.33348747      0.00000734
O       0.95616991     -0.68223518      0.00000513
C       2.25634844     -0.33050037      0.00000434
O       2.69090871      0.78657221      0.00000491
H      -2.99591103      0.97377230     -0.88375369
H      -1.93311915      2.07395608      0.00001236
H      -2.99592163      0.97375718      0.88374660
H      -2.64885269     -1.31642653     -0.00001546
H       0.38608948      1.34090655      0.00001636
H       2.86082675     -1.24460502      0.00000365
