16
b3lypvtz=-202041.4161447
C       2.08504372      0.30016919     -0.50123814
C       0.84317029     -0.39580307     -0.02233525
N      -0.27699453     -0.23210849     -0.58131573
C      -1.41945885     -0.96228975     -0.05641660
C      -2.57124913     -0.02535046      0.19320548
N      -3.27632559     -0.11691214      1.23923530
N       2.77976430      0.91431979      0.63368508
H       1.81016351      0.98400246     -1.31136405
H       2.75246587     -0.45823328     -0.92365130
H       0.97890459     -1.04537428      0.85285829
H      -1.73798048     -1.67329473     -0.82930870
H      -1.20710162     -1.52727665      0.85830764
H      -2.73622828      0.71518102     -0.59704794
H      -4.02444964      0.57625662      1.23866195
H       3.71257700      1.20328177      0.36950391
H       2.28769883      1.74343200      0.94409234
