18
b3lypvtz=-181893.0013951
C      -3.06115016      0.00860231     -0.04946721
C      -1.61865821     -0.15061249      0.31970992
C      -0.59141745      0.28237424     -0.40174417
C       0.84841935      0.14285488     -0.03326333
C       1.54299748      1.45177785      0.28908278
C       1.35182593     -1.10482171      0.58709234
N       1.59179817     -0.84527779     -0.84601527
H      -3.55404017     -0.96376057     -0.13654250
H      -3.17677613      0.53357952     -0.99806068
H      -3.60574440      0.56640411      0.71767309
H      -1.41865903     -0.66822847      1.25424268
H      -0.77784167      0.80466383     -1.33781349
H       2.59699310      1.28971267      0.52506552
H       1.48715773      2.13746835     -0.56023799
H       1.07384346      1.94414782      1.14270979
H       2.18710432     -1.02992476      1.27414572
H       0.67468798     -1.92470453      0.78864403
H       2.54648568     -0.52644126     -0.98306022
