16
b3lypvtz=-204390.09519365276
C      -1.72221274     -0.91512933      0.42544997
N      -0.42839566     -0.18889847      0.47014448
C       0.63679302     -0.99260704     -0.34562135
C       2.00417609     -0.45152547     -0.08250537
C       2.45170891      0.46611280     -0.91630062
O       2.75968917      1.23822400     -1.74163011
C      -0.60969682      1.26026705      0.13726852
H      -2.46377601     -0.41452968      1.04826143
H      -1.54315329     -1.93336613      0.75462144
H      -2.06295839     -0.93436429     -0.60715393
H      -0.07772520     -0.23866246      1.42344230
H       0.32293837     -0.84626481     -1.38258942
H       2.66941043     -0.85498505      0.67311551
H      -1.29842622      1.74178501      0.83421173
H      -1.00133947      1.32286492     -0.87523942
H       0.36296781      1.74107896      0.18452482
