13
b3lypvtz=-239489.8388707
C      -2.19608605      0.49263568      0.25882104
C      -0.87287834     -0.13902039      0.58189778
O      -0.50223242     -0.49376665      1.66888528
O      -0.11562897     -0.27023749     -0.54280498
C       1.20871278     -0.73935965     -0.34739083
C       2.16282915      0.35518692      0.07598658
O       1.85215323      1.49627081      0.27536209
H      -2.65801868     -0.00095165     -0.59551815
H      -2.84565399      0.43908463      1.12711179
H      -2.03281932      1.53662727     -0.01260015
H       1.24314495     -1.53557778      0.40129975
H       1.54452499     -1.14781980     -1.30320274
H       3.21175267      0.00702811      0.18715252
