13
b3lypvtz=-211314.12513384
C      -3.01033347      0.25558230      0.27741909
N      -2.23348037     -0.59566086     -0.24980070
C      -0.85673421     -0.50420241     -0.03804952
N      -0.26651558      0.63081682     -0.05157819
N       1.07652682      0.70215911      0.12492038
N       1.85825416     -0.39122684      0.19253677
C       3.12178975     -0.24174830      0.12128426
H      -4.07201977      0.20999476      0.05039218
H      -2.66148637      1.03944814      0.95402946
H      -0.33362159     -1.44833784      0.06117073
H       1.47153481      1.57614661     -0.20015301
H       3.74157534     -1.12311392      0.20609520
H       3.60403347      0.72914643     -0.01391064
