11
b3lypvtz=-264624.09853116
C       0.30810195     -0.31707560     -0.02643141
C       1.31581608      0.53028923     -0.27735958
O       2.62583785      0.27702978     -0.17667443
F       1.15833072      1.77475814     -0.67201209
C      -1.12474075     -0.05835702     -0.13104876
N      -2.06246556     -0.88415673      0.11312645
O      -1.44640681      1.19474676     -0.52998635
H       0.58165625     -1.31318437      0.29191626
H       2.76390716     -0.63218126      0.11178660
H      -1.70614162     -1.78879063      0.40300177
H      -2.41389527      1.21692170     -0.55276706
