14
b3lypvtz=-203660.20240352
C       2.02210453     -0.04469028      0.29192382
N       0.59891179      0.14284754      0.57523805
C      -0.28501227     -0.73741041     -0.16570314
C      -1.69535523     -0.50089617      0.38487171
C      -1.55008680      0.95967948     -0.12656415
O      -2.32375508      1.85926313     -0.27351573
C      -0.14065104      0.70501989     -0.59765444
H       2.23286524     -0.36154994     -0.73871583
H       2.54771940      0.89073285      0.48182828
H       2.41105687     -0.80129191      0.97384877
H       0.08485249     -1.61038439     -0.68314576
H      -1.81781490     -0.64370452      1.45718669
H      -2.48843639     -1.01078470     -0.16306079
H       0.40330140      1.15296942     -1.41663750
