17
b3lypvtz=-191986.07949208
C      -1.53793708     -0.42544705     -0.18755668
N      -1.48400781      0.80353671      0.12226449
C      -0.22449643      1.50377987      0.38200831
C       0.96525708      1.09082095     -0.49501513
C       1.66201416     -0.21431143     -0.07445781
C       0.69936935     -1.26126251      0.48621619
N      -0.53559843     -1.37492475     -0.29175285
H      -2.51727999     -0.83155951     -0.44545555
H       0.03200608      1.42834758      1.44518026
H      -0.42847894      2.56234705      0.20888968
H       0.60345838      0.99837557     -1.52148077
H       1.69947231      1.90043498     -0.50368953
H       2.19678659     -0.62864364     -0.93237347
H       2.41380331     -0.00827447      0.69266018
H       1.17751468     -2.24099274      0.48855922
H       0.45914870     -1.02678210      1.52869812
H      -0.88283695     -2.31306151     -0.40353065
