13
b3lypvtz=-242065.16747039
C       1.22555412      1.88236282     -0.09396052
O       0.19978259      1.06227916      0.45371307
C      -0.04604164     -0.11808449     -0.26569747
C       1.05063372     -1.09953825     -0.10281539
N       1.90608583     -1.85564809      0.03661484
C      -1.35519727     -0.72210949      0.23070940
F      -2.40746770      0.06598808     -0.19943965
H       0.98375112      2.18028657     -1.11959441
H       2.19387651      1.37344288     -0.08415107
H       1.27973558      2.76777727      0.53414459
H      -0.14998291      0.09046461     -1.33922728
H      -1.35974110     -0.74816294      1.32081262
H      -1.48659083     -1.72745113     -0.17140274
