12
b3lypvtz=-223774.87734295
C      -2.22810104      0.32206262     -0.26665362
C      -1.15631132     -0.31766436      0.51957994
O      -2.01534610     -1.07860103     -0.34540059
C       0.24000567     -0.20597102      0.07754658
N       1.18140362     -0.10059771      0.92944333
N       2.42978443      0.00759301      0.25610923
N       3.33168643      0.24298912      1.06364326
H      -1.97618326      0.88479295     -1.15992467
H      -3.12783987      0.63524677      0.25248369
H      -1.30580300     -0.47130270      1.58185414
H       0.43586965     -0.21786897     -0.99690022
H       4.19083478      0.29932131      0.50194625
