15
b3lypvtz=-219540.55366028
C      -0.12053613      1.05358384     -1.26966526
C       0.11592130      0.21150398      0.00003221
C      -0.12043674      1.05290444      1.27019741
C       1.49508266     -0.29632883     -0.00016772
N       2.57038496     -0.70637389     -0.00037408
C      -0.80419580     -1.02534925     -0.00026251
F      -2.13248376     -0.61399681     -0.00004283
H       0.52902332      1.92774686     -1.27500244
H      -1.15687059      1.38677187     -1.29311784
H       0.07918544      0.47281508     -2.17000780
H       0.52909252      1.92708749      1.27592812
H      -1.15678035      1.38604260      1.29392915
H       0.07939411      0.47167023      2.17021528
H      -0.64080330     -1.63251145      0.89112322
H      -0.64093765     -1.63198415     -0.89203192
