14
b3lypvtz=-203661.9030797
C      -0.77955442     -0.91576746     -0.41467705
C       0.56797184     -1.23317361      0.31530963
C       1.16440896     -0.04455170     -0.50991435
C      -0.22845985      0.50429512     -0.04841355
C       0.13230773     -0.15226526      1.30717485
O       0.09096598      0.06884350      2.47937011
N      -0.80470655      1.75040669     -0.41396772
H      -1.70238828     -1.24027209      0.06374393
H      -0.77222142     -1.12794814     -1.48272016
H       1.01182796     -2.20365735      0.49931651
H       1.23051459     -0.23020725     -1.58087051
H       2.05611520      0.44421117     -0.12030742
H      -1.72809109      1.85650477     -0.01002949
H      -0.23869063      2.52358160     -0.08401478
