12
b3lypvtz=-223838.34198824
C       1.66314995     -0.02632369     -0.10434111
C       0.43248152      0.65764270     -0.17123898
C      -0.53206992     -0.29271519      0.09799540
N       0.15042589     -1.44918576      0.30436605
N       1.48751129     -1.31039425      0.18692738
N      -1.92352831     -0.20175665      0.22495321
O       0.14808835      1.96336827     -0.49844982
H       2.65651051      0.36140605     -0.26682681
H      -0.23606039     -2.33360331      0.58253785
H      -2.20915389      0.77071914      0.22030934
H      -2.41970719     -0.68477772     -0.51798422
H       0.78235219      2.54562043     -0.05824829
