18
b3lypvtz=-205211.72905311
C      -2.89383616     -0.43346575     -0.11584854
C      -1.52998414      0.17923842     -0.19403591
N      -0.65814108     -0.02662013      0.69441469
C       0.68202443      0.55175272      0.59669269
C       0.93578100      1.59319822     -0.49603564
C       1.68508444     -0.60110686      0.52114926
O       1.60403580     -1.20419249     -0.76815734
H      -3.66496829      0.34197376     -0.12370682
H      -3.07577997     -1.06595800     -0.98932151
H      -2.99199777     -1.03161496      0.78783310
H      -1.34466590      0.81062444     -1.07005827
H       0.85963778      1.02482096      1.56907799
H       1.94240220      1.99911956     -0.38383752
H       0.86471174      1.15993628     -1.49268836
H       0.23245478      2.42388818     -0.42211858
H       1.44256045     -1.32135016      1.30707698
H       2.69386813     -0.20926369      0.70039606
H       2.03227656     -2.06287352     -0.73487625
