13
b3lypvtz=-211372.33378488
C      -1.54593252      1.34632956     -0.02138935
N      -0.29043001      0.62302929      0.01197160
C       0.98907967      1.12464664      0.01533008
N       1.86519548      0.16559221     -0.00180932
N       1.16711053     -1.03069536      0.00282066
C      -0.10577708     -0.73167881      0.00888399
N      -1.16154421     -1.63080795     -0.08193630
H      -1.38635309      2.32588966     -0.46690424
H      -1.96106419      1.48098609      0.97948488
H      -2.26114500      0.79697141     -0.63195399
H       1.20428310      2.18028262      0.03379882
H      -1.84226163     -1.54740008      0.66187652
H      -0.80415704     -2.57574827     -0.11744234
