12
b3lypvtz=-202930.9394823
N       0.52894482      2.46554176      1.39693961
C       0.38496781      1.46832075      0.83848037
C       0.23662902      0.22208636      0.14285882
C       1.49955550     -0.52715712     -0.15570852
O       1.51259448     -1.58351487     -0.73320438
C      -1.01813719     -0.62477497      0.41062140
C      -0.90385142      0.08187907     -0.87835755
H       2.42930426     -0.04247661      0.19212934
H      -1.69356288     -0.24255654      1.16126032
H      -0.83583433     -1.68964618      0.42451264
H      -1.49781307      0.96782330     -1.04604704
H      -0.64279699     -0.49552494     -1.75348503
