14
b3lypvtz=-203665.53196698
C      -0.73123962     -1.22683461     -0.77050099
C      -0.77925434      0.02054503      0.10395858
C       0.55044395      0.79007463      0.05505777
N       0.72244667      1.89389940     -0.55191027
C       1.64058548      0.17178549      0.75932908
C       2.50264992     -0.39297773      1.37625507
O      -1.85003472      0.82762983     -0.36687614
H      -1.66632695     -1.77775348     -0.67857136
H      -0.59584326     -0.94105737     -1.81410516
H       0.09237923     -1.87556329     -0.47537064
H      -0.95223703     -0.27601185      1.14478447
H      -0.16115492      2.16443870     -0.99237669
H       3.28558115     -0.87013793      1.91181867
H      -2.05799553      1.49196317      0.29850760
