17
b3lypvtz=-194361.79798701
C      -2.64529820     -0.05302541     -0.11115046
C      -1.24088783     -0.65871170     -0.14459110
C      -0.20833159      0.21293268      0.56370954
C       0.23769133      1.49074745     -0.13008948
C       1.49973530      1.09641417     -0.30715994
C       1.29937678     -0.21784287      0.42380426
O       1.47529497     -1.43239162     -0.28955829
H      -3.36562641     -0.70321921     -0.61031320
H      -2.67520977      0.91648064     -0.61305033
H      -2.98961685      0.09589444      0.91514741
H      -1.25183925     -1.64254944      0.33159651
H      -0.92717634     -0.82248465     -1.17664031
H      -0.51203600      0.35644788      1.60668667
H      -0.28699990      2.41003630     -0.35885692
H       2.37234008      1.55934206     -0.75082484
H       1.81516825     -0.26753547      1.38982325
H       2.41776844     -1.59673924     -0.38908978
