12
b3lypvtz=-252101.36198417
C      -1.57088443      0.86137872      0.05161521
C      -0.25695588      1.00411400     -0.10267392
O       0.56960060     -0.10743134      0.02866965
N       1.77586370      0.09200712     -0.64924619
C       2.51306081     -0.92250242     -0.54864124
F       3.71165882     -0.89204604     -1.12571909
N      -2.23570530     -0.32484599      0.36598684
H      -2.18555774      1.74951941      0.01150305
H       0.24286144      1.94267807     -0.27433851
H       2.28927724     -1.84845091     -0.03156299
H      -3.16013294     -0.39721848     -0.02992832
H      -1.69308631     -1.15720215      0.18771536
