14
b3lypvtz=-203674.72992555084
C       1.72962107     -0.58485571     -0.16420016
C       0.46380171      0.16140318     -0.55949726
C       0.22768849      1.54199346     -0.00010194
N      -0.86215444      1.34918102      0.64842020
C      -0.84518729     -0.10236919      0.24441918
C      -2.09106973     -0.51866528     -0.49051707
O      -2.09698205     -1.10121403     -1.54448490
H       2.60345729     -0.15973424     -0.66104374
H       1.66200958     -1.63459387     -0.45355361
H       1.89998116     -0.53868104      0.91318747
H       0.29720684      0.09332205     -1.63572072
H       0.76988736      2.48326858     -0.06686552
H      -0.72380273     -0.74999394      1.11954991
H      -3.03445728     -0.23906099      0.02001126
