13
b3lypvtz=-237081.5227458
C      -2.52248840     -0.85412134      0.00000357
N      -1.06931453     -0.80282370     -0.00000980
C      -0.50794734      0.32565035     -0.00001998
O      -1.18648589      1.50315442      0.00000635
N       0.88615017      0.54070371     -0.00001659
C       1.64769063     -0.47275458     -0.00000217
O       2.97587033     -0.35842211      0.00000232
H      -2.94776220     -0.36270289      0.88062208
H      -2.84015263     -1.89537599      0.00004425
H      -2.94777093     -0.36276973     -0.88064844
H      -0.52795075      2.20916891      0.00000156
H       1.30770560     -1.50476362      0.00005911
H       3.19159794      0.58708757     -0.00002727
