16
b3lypvtz=-202058.29022586
N       2.40962542     -0.94895460     -0.66485381
C       1.64474498     -0.56679109      0.10540880
C       0.65127534     -0.06797336      1.05324556
C      -0.47606722      0.73440422      0.37032450
N       0.09804146      1.93825117     -0.22764733
C      -1.31325081     -0.11552032     -0.61086012
N      -2.01482263     -1.27523036     -0.07518162
H       0.23504104     -0.91774252      1.59706603
H       1.15641378      0.57497718      1.77508655
H      -1.13674008      1.06084221      1.18051589
H      -0.63243510      2.53180145     -0.60272090
H       0.70794420      1.69711694     -1.00281106
H      -0.66864161     -0.45418904     -1.42663425
H      -2.05314956      0.55120549     -1.06364047
H      -2.58310477     -1.03930042      0.72899728
H      -1.38320643     -2.01865994      0.19106194
