20
b3lypvtz=-182669.72710608
C      -2.46749408     -0.66015383     -0.05122850
C      -1.41875432     -0.09816428     -0.63741726
C      -0.08940937      0.22875283      0.00974627
C       0.27584926      1.68426765     -0.36026034
N      -0.18659689      0.03015474      1.46302669
C       0.95954600     -0.76615004     -0.55394771
C       2.38675968     -0.61485599     -0.02380267
H      -2.44416122     -0.95458372      0.98934473
H      -3.37627243     -0.85763372     -0.60462791
H      -1.47811574      0.16198797     -1.69064417
H       1.22242544      1.97869718      0.09469351
H       0.36464906      1.81670863     -1.44123792
H      -0.49572140      2.36810091     -0.00183165
H       0.69356275      0.26368382      1.90624623
H      -0.88041581      0.66050685      1.85075144
H       0.59898928     -1.77174231     -0.33177379
H       0.96931991     -0.66733164     -1.64268565
H       2.43888082     -0.77592592      1.05444389
H       2.81110031      0.36593537     -0.24282921
H       3.03709276     -1.35920851     -0.48600398
