19
b3lypvtz=-192747.42561728
C      -2.43691153     -0.24738139      0.76731507
C      -1.52953494     -0.49290604     -0.44900905
C      -0.25590943      0.32550664     -0.37795853
N      -0.10237147      1.47228288     -0.90137237
C       0.91856282     -0.28443187      0.39255933
C       1.66890852     -1.26559069     -0.52030438
N       1.86893062      0.68277669      0.93394922
H      -2.74063070      0.79873143      0.82072545
H      -1.93019531     -0.49650122      1.70083758
H      -3.33777143     -0.85894963      0.70537627
H      -1.28641241     -1.55669227     -0.50498510
H      -2.06834539     -0.23843923     -1.36459911
H      -0.93479010      1.76095016     -1.41692500
H       0.51091979     -0.85237582      1.23464788
H       2.12847050     -0.72142733     -1.34754911
H       1.00911999     -2.02553934     -0.94104362
H       2.45673643     -1.76025733      0.04599681
H       2.12126458      1.32582392      0.18889128
H       1.40351446      1.26061143      1.62595540
