19
b3lypvtz=-192735.00162623
C       2.34730474     -0.50522074     -0.02141350
N       0.96113142     -0.81275563     -0.35589914
C      -0.07866112      0.17060907      0.00460641
C       0.24052202      1.52305029     -0.65672077
C      -0.25316044      0.34804554      1.51977979
C      -1.34820280     -0.35817510     -0.66168029
N      -2.48502047     -0.59213085     -0.16025909
H       2.95801635     -1.37552500     -0.26171809
H       2.71263011      0.32041868     -0.63190029
H       2.52809636     -0.25188102      1.03269652
H       0.70949115     -1.71320296      0.03277894
H       0.40445723      1.39629066     -1.72720908
H       1.13465011      1.97225541     -0.22389953
H      -0.58563867      2.21900125     -0.51136477
H       0.67206676      0.70525345      1.97140573
H      -0.51723777     -0.59687741      1.99941050
H      -1.02950689      1.07879434      1.75483596
H      -1.21162290     -0.55986776     -1.72652587
H      -2.50414819     -0.38187120      0.83936455
