12
b3lypvtz=-249537.31677665
C      -3.18145510      0.18310713     -0.00001911
C      -1.83511008     -0.45564888      0.00001460
N      -0.79784135      0.27265636     -0.00007885
O       0.36482056     -0.55332158     -0.00002258
C       1.53153660      0.17356260     -0.00001709
O       1.65071866      1.35290137      0.00021323
O       2.55770493     -0.69641596      0.00001129
H      -3.74923105     -0.13175317      0.87866273
H      -3.09278260      1.26708089     -0.00012779
H      -3.74926894     -0.13192723     -0.87861395
H      -1.75764507     -1.54247720      0.00012405
H       2.21488643     -1.59970532     -0.00015254
