17
b3lypvtz=-194388.9125396
C       1.42256733     -0.01369753      1.26358394
C       0.57470190      0.04287546     -0.00001681
C       1.42197077     -0.01381945     -1.26401989
C      -0.42516513      1.23951321      0.00012239
C      -1.76439617      0.55029470      0.00002662
C      -1.56980741     -0.76319215      0.00011956
O      -0.27051186     -1.16654203      0.00022825
H       2.03165206     -0.91809934      1.27808107
H       2.08582113      0.85185924      1.31622527
H       0.78590491     -0.01322308      2.14887012
H       2.03100022     -0.91825431     -1.27874344
H       0.78488495     -0.01337277     -2.14900246
H       2.08523969      0.85170317     -1.31703601
H      -0.28227511      1.87650558     -0.87749732
H      -0.28232634      1.87628534      0.87791421
H      -2.72208510      1.04381824     -0.00004545
H      -2.29243184     -1.56556526      0.00013594
