14
b3lypvtz=-201285.99921846
C      -2.26687492     -0.68983886      0.23211928
C      -1.36213436      0.17884015     -0.20918240
N       0.03258549      0.00741929     -0.14206238
C       0.87151606      1.13063257     -0.10584187
N       0.57118198      2.32837486      0.17281918
C       0.58381264     -1.28790457     -0.19793811
N       1.72810578     -1.67707585      0.17427209
H      -3.31635413     -0.49968390      0.06493870
H      -2.00143090     -1.59636258      0.75740193
H      -1.66305727      1.09814505     -0.69636122
H       1.89344624      0.89549975     -0.39135276
H      -0.39828305      2.43420306      0.46885641
H      -0.10285724     -2.00317055     -0.64378746
H       2.27349769     -0.94717443      0.62981263
