16
b3lypvtz=-181081.30245389
C      -2.64496144     -0.77612733     -0.48002070
C      -3.15776789     -1.96224637      0.51503136
N      -2.56050226     -3.27553504      0.06040419
C      -1.06935833     -3.30907717      0.33575062
C      -0.60480203     -2.02047532     -0.36040727
C      -1.63787672     -1.67139647     -1.15834538
C      -2.44635778     -2.96305346     -1.38425492
H      -3.45062354     -0.40575435     -1.11306678
H      -2.21155137      0.04630994      0.08534347
H      -4.23976238     -2.06296547      0.45780759
H      -2.87492682     -1.75152942      1.54541590
H      -0.84625773     -3.24389952      1.40151802
H      -0.69025202     -4.26587860     -0.02872369
H      -0.00876970     -1.29132426      0.17588801
H      -1.90925912     -3.74227917     -1.92242072
H      -3.42007086     -2.80486801     -1.84741970
