15
b3lypvtz=-170276.39033563
C      -3.77640114     -0.02618047      0.00008831
C      -2.61078523      0.25811383     -0.00004450
C      -1.18844548      0.57632739     -0.00045727
C      -0.29750006     -0.68983321      0.00022299
C       1.12526330     -0.36872659      0.00012531
C       2.29240914     -0.08253289      0.00021006
C       3.71033637      0.25102869      0.00039182
H      -4.80938752     -0.26903667      0.00056133
H      -0.94707305      1.18427550      0.87433935
H      -0.94731575      1.18321800     -0.87605507
H      -0.54375100     -1.29697779     -0.87408000
H      -0.54375865     -1.29597101      0.87522366
H       3.85998069      1.33250818     -0.01370582
H       4.21321421     -0.16567024     -0.87467278
H       4.20739018     -0.14191073      0.88965661
