14
b3lypvtz=-201255.56420577
C       2.28540555     -0.09520337     -0.46087513
C       1.02897121     -0.76781362     -0.03497626
C      -0.15495649     -0.18701534      0.26041827
N      -1.21970447     -1.03547170      0.59881902
C      -2.44429976     -0.74890503      0.43158426
N      -0.16538703      1.23298020      0.26239301
N      -1.21823554      1.79107407      0.62657499
H       2.62418715     -0.50042170     -1.41911887
H       3.08563211     -0.30469463      0.25597832
H       2.16611986      0.98027949     -0.54858658
H       1.04482086     -1.84901076      0.03742144
H      -2.82004150      0.17419065      0.00037634
H      -3.17768791     -1.49278309      0.73923240
H      -1.03482403      2.80279481      0.59216785
