17
b3lypvtz=-194392.03749286
C      -2.45978703     -1.27985563      0.00000892
C      -2.13878328      0.01127197     -0.00004937
C      -0.75908428      0.56865008     -0.00006663
O      -0.61122162      1.77549314     -0.00015054
C       0.42832230     -0.38057327     -0.00003682
C       1.78171160      0.32407604     -0.00008037
C       2.95250935     -0.65749605     -0.00006991
H      -1.71272814     -2.06269221      0.00006174
H      -3.49327157     -1.60056291      0.00001160
H      -2.90847126      0.77459383     -0.00009709
H       0.34010416     -1.03907805      0.87098103
H       0.34008077     -1.03913256     -0.87101160
H       1.84223344      0.98080493     -0.86965032
H       1.84226356      0.98085945      0.86944664
H       3.90736587     -0.12994329     -0.00010350
H       2.93263987     -1.30320173      0.88115442
H       2.93260826     -1.30325675     -0.88125320
