20
b3lypvtz=-182657.60133891
C      -2.57819096      0.75680853      0.44741713
N      -1.93582283      0.02320166     -0.63481883
C      -0.93567755     -0.95517258     -0.21546487
C       0.32736512     -0.41036854      0.42614709
C       1.61358335     -1.19125841      0.32538387
C       1.45597880      0.10400681     -0.42794989
C       2.24552422      1.32712270     -0.02716510
H      -1.89912965      1.34465732      1.08225672
H      -3.31968324      1.43938772      0.03042376
H      -3.10781704      0.05295767      1.09353049
H      -1.52300526      0.67054013     -1.29537425
H      -1.42570767     -1.65016767      0.47403020
H      -0.65531056     -1.54258929     -1.09508230
H       0.17825248      0.11458726      1.36313893
H       1.59895004     -2.11700547     -0.23581769
H       2.27642571     -1.20236316      1.18087421
H       1.30895724     -0.00279575     -1.49827082
H       1.75165879      2.24589723     -0.35272932
H       2.35983689      1.38038183      1.05753010
H       3.24707310      1.31503104     -0.46360242
