12
b3lypvtz=-249546.96381865
O       2.85147320     -1.46131115     -0.21062562
C       2.11426974     -0.51471896     -0.03987541
N       0.75672603     -0.58617596     -0.22058378
C      -0.17515777      0.43080135     -0.05315192
O       0.39007311      1.61206942      0.33546307
C      -1.48120405      0.23813502     -0.25934529
O      -1.92357638     -1.01648957     -0.65358666
H       2.46021894      0.47764699      0.27227046
H       0.38969005     -1.48214336     -0.50893721
H      -0.29902277      2.27605164      0.43485665
H      -2.20716183      1.02757703     -0.12931569
H      -2.87622827     -1.00154245     -0.76136859
