16
b3lypvtz=-181103.51938289
C      -0.84327128     -0.93459883     -0.47554591
C      -1.80910901      0.08348801      0.15284174
N      -1.56685347      1.43626605     -0.32827484
C      -0.66338733      0.89639000      0.68231391
C       0.32278763     -0.08010787      0.07043506
C       1.65045621      0.23056575     -0.55311925
C       1.56922655     -0.59295457      0.71376524
H      -0.92017095     -1.05217917     -1.55926213
H      -0.89175633     -1.91691264     -0.00506465
H      -2.76788515     -0.13540449      0.60094037
H      -1.14553422      1.45695841     -1.25314852
H      -0.55341411      1.43007656      1.61692606
H       2.03019431      1.24143985     -0.47935974
H       1.91412635     -0.28091687     -1.46961304
H       1.89171535     -0.13012064      1.63762761
H       1.78267546     -1.65198953      0.64853809
