19
b3lypvtz=-192722.62884623
C       2.80196965      0.22161718      0.32489602
N       1.42006704      0.44468500     -0.07234750
C       0.47017876     -0.42461275      0.60912494
C      -0.94407948     -0.12194690      0.15546006
C      -1.48422134      1.23064789      0.56243846
C      -1.88659052     -1.24475080     -0.05397153
N      -1.21881419     -0.61378570     -1.21056845
H       3.13441641     -0.82427678      0.22526803
H       3.46224003      0.84669765     -0.27691288
H       2.93604355      0.51055385      1.36979796
H       1.31875715      0.29311264     -1.06956975
H       0.55322586     -0.24979309      1.68676679
H       0.68021726     -1.49254683      0.44028427
H      -2.48199357      1.39736869      0.15200968
H      -0.82238799      2.02310691      0.21191381
H      -1.55245263      1.31021915      1.64990785
H      -1.57826098     -2.26329628      0.14891651
H      -2.94276344     -1.05397972      0.09711639
H      -1.86535157      0.01087991     -1.68163064
