10
b3lypvtz=-225421.30990589
C       2.27882476      0.30070912      0.12980362
C       1.09706880      0.09215222      0.11861648
C      -0.29390735     -0.19001775      0.10890692
N      -1.24320568      0.67811714      0.00830140
O      -0.79436925      1.96673167     -0.09674123
C      -0.79125800     -1.59338545      0.22107277
O      -0.07760789     -2.55631704      0.32294165
H       3.32515763      0.48151212      0.14004318
H      -1.60738034      2.48211538     -0.16218671
H      -1.89332266     -1.66161744      0.20103457
