11
b3lypvtz=-215383.29864552
C       2.47642580     -0.19558092      0.25193838
C       1.29677713     -0.01037593      0.35751150
C      -0.12719811      0.20750408      0.47147813
C      -1.09848785     -0.84539169     -0.10649448
O      -1.68041234      0.16661632     -0.99391049
C      -0.80548597      1.13044229     -0.57261603
O      -0.70773107      2.25019382     -0.94124723
H       3.52211757     -0.35237914      0.15714093
H      -0.39612894      0.52244970      1.48144744
H      -1.84812686     -1.23447579      0.57773106
H      -0.63174937     -1.63900276     -0.68297923
