14
b3lypvtz=-203686.82426077
C       2.92456449     -0.50114938     -0.51623422
C       1.55461668     -0.14755415     -0.17061775
C       0.42829932      0.14789215      0.12383716
C      -0.93863098      0.50276406      0.47480605
C      -1.96237195      0.19228434     -0.60214820
N      -1.79954025     -0.32257019     -1.74066453
O      -3.19759201      0.55912687     -0.18038812
H       3.07720950     -1.58102495     -0.46908339
H       3.17313857     -0.17084325     -1.52657811
H       3.63231258     -0.03316529      0.17074322
H      -1.25046959     -0.01575917      1.38647667
H      -1.01439107      1.56988532      0.70456793
H      -0.82036117     -0.54019046     -1.90463437
H      -3.80678412      0.34030410     -0.90008235
