13
b3lypvtz=-213767.58263367
C       2.53183898     -0.89883294      0.01838340
C       1.20126873     -0.85625781      0.01425649
C       0.42985870      0.39199338     -0.01116948
O       1.20044661      1.49824723     -0.02995013
N      -0.84150334      0.55797292     -0.01746640
C      -1.74600945     -0.50060760     -0.00018960
N      -3.00596933     -0.35415165     -0.00510803
H       3.05473738     -1.84542141      0.03755956
H       3.12863004      0.00177984      0.00287488
H       0.63351895     -1.77418857      0.03016131
H       0.59028540      2.25034161     -0.04565520
H      -1.36302222     -1.52186928      0.01864683
H      -3.22936444      0.64369128     -0.02325963
