18
b3lypvtz=-181893.9315524
N       3.15168831      0.52148765      0.18533333
C       2.17342747     -0.39589891     -0.41541751
C       0.77898120      0.09603327     -0.17067756
C      -0.19229954     -0.63277473      0.37250107
C      -1.59595159     -0.21401372      0.60455045
C      -2.64363013     -0.39326452     -0.47746159
C      -2.21208836      0.98525370     -0.05769970
H       3.07613148      0.49728774      1.19567826
H       4.09571743      0.23893519     -0.04947595
H       2.25824563     -1.43537126     -0.06899795
H       2.36807645     -0.40605881     -1.49311234
H       0.59740076      1.12695484     -0.45754358
H       0.03724660     -1.65241911      0.67687112
H      -1.95500980     -0.42934121      1.60537332
H      -2.30147742     -0.75266351     -1.43820866
H      -3.62523941     -0.74160929     -0.18651722
H      -1.60953056      1.55443060     -0.75080394
H      -2.90124651      1.58284810      0.52278946
