10
b3lypvtz=-248802.0314964
C      -0.49689995      1.06102483      0.15847741
C      -0.66137731     -0.24835650     -0.06265648
N       0.59744693     -0.82107427     -0.11562679
C       1.56313172      0.14955191      0.07600330
O       2.75716083      0.03889759      0.09702219
O       0.87342315      1.32432097      0.24685355
O      -1.72680118     -1.05649710     -0.23076011
H      -1.17276519      1.88538696      0.27218562
H       0.80530564     -1.79169684     -0.26861651
H      -2.53862465     -0.54155755     -0.17288219
