15
b3lypvtz=-237846.08808873
C      -1.16405350     -0.24480963      1.34300298
C      -0.57551053     -0.00382121     -0.04173404
O      -1.17808232      1.16983359     -0.53468685
O      -0.82764686     -1.09872859     -0.91542526
C       0.96005338      0.14448375      0.01938953
N       1.56590891      1.26133129      0.10704247
N       1.63652500     -1.04720125      0.06672155
H      -0.95204603      0.60017610      1.99549676
H      -0.73704103     -1.14610383      1.77715707
H      -2.24724628     -0.35546363      1.26361127
H      -0.79265453      1.35981973     -1.39915194
H      -1.77602662     -1.27011084     -0.90697971
H       0.89381758      2.02344200      0.13610224
H       1.20756167     -1.82667734     -0.40253584
H       2.63759716     -0.96994215     -0.01545423
