17
b3lypvtz=-220275.20408919
C       0.90964353      1.73262878     -0.12729518
C       0.31930140      0.44314016      0.45089361
C       1.37197067     -0.64016880      0.62373121
F       1.93114031     -0.98188667     -0.61671862
C      -0.83906532     -0.06590443     -0.38204308
C      -2.23330996      0.36033900     -0.12751704
N      -1.77412301     -0.97443077      0.29582161
H       1.34655562      1.55449828     -1.11046179
H       0.14127495      2.49966998     -0.23175059
H       1.69493148      2.12822749      0.51937280
H      -0.06757324      0.64147300      1.45644547
H       0.92986166     -1.54542632      1.04204947
H       2.19090710     -0.30215130      1.26250333
H      -0.58487681     -0.29631811     -1.41157388
H      -2.44496572      1.04395185      0.68627207
H      -2.91245541      0.43582706     -0.96820516
H      -2.11266925     -1.68477118     -0.34350724
