12
b3lypvtz=-226231.73682265
C      -2.25212823     -0.16349533     -0.19597934
N      -1.07751826     -1.01921774     -0.25096742
C       0.04914637     -0.49675125     -0.15700524
O       1.22446026     -1.20522686     -0.19632946
C       2.24884135     -0.29026738     -0.06218229
C       1.73947459      0.92651411      0.05473031
O       0.35836022      0.84195546     -0.00013345
H      -2.25980026      0.57440337     -1.00426204
H      -3.14165625     -0.78266667     -0.29242465
H      -2.31711679      0.38344549      0.74978610
H       3.25307334     -0.66859790     -0.07070655
H       2.17486369      1.89990469      0.17623523
