17
b3lypvtz=-217697.03182364
C      -0.94953106      1.04588612      0.28118169
C      -1.44576584     -0.34230497      0.69915169
C      -0.61329481     -1.42716060      0.02343749
O       0.77613087     -1.25453524      0.28916777
C       1.27311751     -0.00906662     -0.18783277
C       0.56663891      1.15909913      0.47827018
O       2.63395339      0.05206946      0.11103070
H      -1.19359946      1.21436519     -0.77307693
H      -1.46290253      1.82568607      0.84600651
H      -2.49929725     -0.47357532      0.43992618
H      -1.35987860     -0.45723950      1.78288816
H      -0.78817887     -1.41609864     -1.06275485
H      -0.86803901     -2.41955976      0.39320555
H       1.10775732      0.02094284     -1.27994397
H       0.82213335      1.13115394      1.54002316
H       0.95131518      2.09430289      0.06814963
H       3.04944088     -0.74396498     -0.23891088
