12
b3lypvtz=-249536.79326432
O       1.94490736     -0.42265834      1.29190981
C       1.55276102     -0.42280744      0.15420760
O       2.37028928     -0.63406536     -0.90214020
C       0.13176342     -0.19722493     -0.29994215
C      -0.81598065      0.04025246      0.83341681
N      -2.06195506      0.25579702      0.71895428
O      -2.46442642      0.24616777     -0.63070841
H       3.26120121     -0.77140604     -0.54666611
H      -0.18772812     -1.05566161     -0.89754293
H       0.11419776      0.64244667     -1.00054596
H      -0.43594549      0.03357382      1.84712758
H      -3.40908432      0.41858598     -0.56807032
