12
b3lypvtz=-226258.39732821
C      -2.35390130     -1.02855659     -0.00000134
C      -1.36072399      0.09753153     -0.00001337
O      -1.61010249      1.27332015      0.00004977
O      -0.08607012     -0.38296000     -0.00004441
C       0.93061365      0.62830203     -0.00001257
C       2.22979110     -0.03644803      0.00000389
N       3.26995952     -0.52489082      0.00003320
H      -2.20322777     -1.65644897     -0.87833758
H      -2.20320302     -1.65640247      0.87836239
H      -3.36004807     -0.62142527      0.00000500
H       0.83589937      1.26447519     -0.88119088
H       0.83586813      1.26445224      0.88117888
