12
b3lypvtz=-202865.90914439
C      -1.51325627      0.65653062      0.21272626
N      -1.59412649     -0.40213401     -0.49757252
C      -0.17984615     -0.81371290     -0.57799103
C       0.52691530     -0.53109808      0.78509577
C      -0.07116055      0.90380406      0.57124085
C       0.72815232      0.45040483     -0.70076937
O       1.78109046     -0.17322128      0.11069106
H      -2.37533029      1.25268967      0.49002620
H       0.03921416     -1.71312582     -1.14238219
H       0.58203032     -1.13218104      1.69137673
H       0.26351953      1.74347844      1.17128655
H       1.02469767      1.02616549     -1.57612832
