18
b3lypvtz=-205212.62775335
C      -3.23930472      0.30123692      0.05101924
C      -1.95449220     -0.44613571      0.37837538
N      -0.83534741      0.05815493     -0.41840608
C       0.38796219     -0.64452586     -0.23284757
C       1.55679998     -0.03263349     -0.01410482
C       1.77147845      1.43868843      0.08303827
O       2.73000291     -0.72560495      0.13980473
H      -3.12068315      1.37042693      0.22983441
H      -3.51858993      0.16331164     -0.99677558
H      -4.06575866     -0.06309508      0.66249423
H      -1.69963308     -0.30864896      1.43170660
H      -2.10950072     -1.52816645      0.23395006
H      -1.09913516      0.07845037     -1.39762715
H       0.36496267     -1.73933455     -0.25805527
H       2.41316962      1.78538237     -0.73054759
H       0.81895528      1.95831659      0.03603075
H       2.27986640      1.67914711      1.01929647
H       2.54986554     -1.67048122      0.07014593
