17
b3lypvtz=-248614.30901269
C      -1.28720455      1.25817522     -0.52910458
C      -0.59297075      0.00000166      0.01622070
C      -1.28720905     -1.25815716     -0.52913556
C      -0.61077001     -0.00001479      1.55179423
C       0.84921368     -0.00000142     -0.48698916
F       1.53494255      1.09826243     -0.03399536
F       1.53492572     -1.09829007     -0.03402924
H      -0.81119983      2.16614073     -0.16022460
H      -2.33224016      1.27074451     -0.21696440
H      -1.26767258      1.28340364     -1.62114787
H      -2.33224676     -1.27072723     -0.21700297
H      -0.81121053     -2.16613201     -0.16027122
H      -1.26766898     -1.28336458     -1.62117930
H      -0.11279941     -0.88276467      1.95216911
H      -1.64135807     -0.00000596      1.90970334
H      -0.11277738      0.88271330      1.95219000
H       0.91763111      0.00001541     -1.57796215
