16
b3lypvtz=-181131.84913268
N       3.04554369     -0.54365598     -0.20992682
C       2.32910228      0.49869186     -0.07371564
C       0.86407839      0.60874117      0.03066747
C       0.06089712     -0.36384281      0.47141862
C      -1.41163947     -0.32784007      0.57100639
C      -2.26807789     -0.59441325     -0.65941221
C      -2.25171736      0.76606263     -0.02618519
H       2.46137724     -1.38055894     -0.27892633
H       2.86278573      1.45102063     -0.03053442
H       0.44716480      1.57517207     -0.23156129
H       0.51596493     -1.29437557      0.80356889
H      -1.79753372     -0.77467199      1.47993917
H      -1.74921673     -0.71643231     -1.59965865
H      -3.14415324     -1.21616713     -0.53906010
H      -3.12317764      1.08339476      0.52896918
H      -1.75528312      1.56215494     -0.56199307
