17
b3lypvtz=-191961.66289137
C       0.32154985     -1.19079129     -0.27523067
C      -1.17479929     -0.80895498     -0.26978324
C      -1.22492098      0.31821637     -1.32997762
C      -0.41909963      1.02891319     -0.22017016
C       0.91930682      0.24835833     -0.21830696
N       1.65535498      0.47640353      1.02720774
N      -1.27677350      0.28466595      0.75033319
H       0.59790463     -1.77373771      0.60461925
H       0.62077060     -1.74476612     -1.16602589
H      -1.90917127     -1.61063987     -0.22926122
H      -2.22071911      0.73671985     -1.44493540
H      -0.74654854      0.14489499     -2.29347299
H      -0.36643265      2.11304998     -0.12908537
H       1.50871632      0.47544881     -1.11519835
H       2.06466217      1.40426042      1.03669720
H       2.42124831     -0.18120147      1.11561127
H      -0.77104871      0.07916002      1.61115258
