17
b3lypvtz=-191994.15721446
C       0.59999017      1.39319342     -0.65434718
C       0.69664442      0.02399191      0.02336374
C       1.99242149     -0.68961236     -0.40202190
N       0.60597905      0.22765116      1.47436435
C      -0.49778121     -0.87543780     -0.39212559
C      -1.81054756     -0.29772441     -0.12329082
N      -2.85516157      0.14950300      0.05510674
H      -0.31255389      1.90775030     -0.35708828
H       1.45131809      2.01495628     -0.36969161
H       0.60975493      1.29553217     -1.74066728
H       2.04173210     -0.84024243     -1.48284438
H       2.07495436     -1.66715178      0.07884175
H       2.85946805     -0.09720009     -0.10605955
H       1.28793896      0.91148903      1.78096548
H       0.80009608     -0.63184685      1.97660273
H      -0.43714319     -1.10046311     -1.45905131
H      -0.43085929     -1.83030742      0.13595510
