17
b3lypvtz=-215259.85414722
C       1.24018465     -1.85669367      0.13521624
O       1.34234625     -0.56657069     -0.44284911
C       0.83621221      0.48550781      0.34708938
C       1.38121417      1.78788886     -0.23702849
C      -0.67357299      0.53151547      0.43468749
N      -1.42572709     -0.23848050     -0.23349454
N      -2.78701736     -0.15382708     -0.04651091
H       0.20257228     -2.18623886      0.21319651
H       1.70295992     -1.88031852      1.13018530
H       1.78385784     -2.53558495     -0.51970135
H       1.21579728      0.38210891      1.37814409
H       1.05582672      1.88983885     -1.27261026
H       2.47046916      1.78013955     -0.21158270
H       1.02419001      2.65003603      0.32814627
H      -1.08508341      1.28771914      1.11706327
H      -3.11778582      0.76581393      0.23670764
H      -3.26396182     -0.47591129     -0.87473183
