16
b3lypvtz=-202041.55131024
C      -2.56472382      0.06960491     -0.38823844
N      -1.61764588      0.60274991      0.26916755
C      -0.30676796      0.12018566      0.20498960
C      -0.02706866     -1.20229145      0.12033570
N       1.22661958     -1.75191405      0.02731565
C       0.76580574      1.16306891      0.43351788
N       1.89302595      1.01868565     -0.50998858
H      -3.57888844      0.43018498     -0.24071395
H      -2.41668593     -0.74176354     -1.10932209
H      -0.84439014     -1.91562660      0.12668749
H       1.39595701     -2.64194270      0.46184953
H       1.99855424     -1.10199604     -0.03381209
H       0.28711587      2.14571441      0.39815056
H       1.18519893      1.04878034      1.44024906
H       2.58985691      1.73254338     -0.33052576
H       1.56764659      1.15486325     -1.46112413
