11
b3lypvtz=-212962.93390573
N      -2.93976102      0.03919538      0.02467539
N      -1.68454520     -0.35689182     -0.18039713
C      -0.72554523      0.39803954      0.23699155
C       0.61761394      0.05100149     -0.00254067
C       1.79643549     -0.17407283     -0.16123431
C       3.17201056     -0.50367723     -0.39052843
O       4.11132480      0.15958454     -0.00682053
H      -3.13105357      0.74508383      0.72841285
H      -3.61920449     -0.69565960     -0.06914063
H      -0.92228835      1.32468281      0.78262105
H       3.32491308     -1.43738610     -0.96203914
