13
b3lypvtz=-190408.08387793
C      -1.27444856      1.55900460      0.00084819
C      -0.69610093      0.35318885      0.00036476
C       0.71298967      0.14689542      0.00020843
C       1.89972036     -0.05428138      0.00000692
C       3.33386024     -0.29205264     -0.00019787
N      -1.44785313     -0.89648397      0.00057124
N      -2.67772919     -0.75762831     -0.00202256
H      -2.35130972      1.64300998      0.00099602
H      -0.67712991      2.45799550      0.00110645
H       3.64112827     -0.83151347      0.89825119
H       3.63117053     -0.88903635     -0.86493052
H       3.88821053      0.64760883     -0.03387847
H      -3.07699215     -1.70556808     -0.00134579
