15
b3lypvtz=-191190.04859647
C      -0.94138425      0.86339029     -0.62125694
C      -0.31873555      0.49926932      0.75651263
C      -1.02001012     -0.86176996      0.48335095
N      -0.72827451     -0.59575152     -0.98259422
C       0.76531624     -0.65069766     -0.96170328
C       1.08234803      0.14726585      0.30711520
N       2.23106278      0.39090079      0.77074163
H      -2.00544249      1.08758190     -0.57284482
H      -0.42772500      1.58113043     -1.26056857
H      -0.43559434      1.08650318      1.66491078
H      -0.58037733     -1.77356978      0.88730751
H      -2.09338358     -0.84276806      0.66295930
H       1.18138846     -0.19219822     -1.85826085
H       1.11320659     -1.68161431     -0.90403334
H       2.17760506      0.94232775      1.62836401
