14
b3lypvtz=-203674.27677585938
C       2.60504042      1.46045910     -0.89223513
N       1.55152004      0.92325315     -0.30549283
C       0.51633183      0.20910476     -0.80178476
C      -0.49197793     -0.25468911      0.04498949
C      -1.59520234     -0.98127229     -0.30040669
C      -2.55947746     -1.39051868      0.69823851
O      -2.49604089     -1.14428368      1.89439786
H       2.73056082      1.35185746     -1.95618370
H       3.31332830      1.99545919     -0.28637900
H       1.49741053      1.06503746      0.69832787
H       0.52558646      0.02960963     -1.86703461
H      -0.40424049     -0.01852380      1.10525162
H      -1.77800985     -1.26967212     -1.32878103
H      -3.41482947     -1.97582107      0.30405919
