16
b3lypvtz=-204462.10334278
C       0.20009128      1.99856229     -0.55684390
C      -0.04698824      1.18174712      0.71053175
C       0.08915992     -0.34909765      0.54587129
C       1.44177949     -0.72376823      0.13100427
N       2.49830708     -1.01544402     -0.22029048
C      -0.93688631     -0.97479316     -0.42936275
O      -2.26910152     -0.75201297     -0.00146697
H       0.11833323      3.06407315     -0.34069281
H       1.19728042      1.81643363     -0.95958280
H      -0.52175958      1.77145141     -1.34373339
H      -1.04900042      1.37405927      1.09962420
H       0.64700597      1.50038226      1.48994189
H      -0.08620939     -0.80693206      1.52337322
H      -0.79247438     -2.05444071     -0.44818672
H      -0.77013499     -0.60364086     -1.44377364
H      -2.55851856      0.11506255     -0.29798415
