13
b3lypvtz=-192793.60856381
C       2.98908735     -0.22679937      0.94295725
C       1.87674071     -0.29907697      0.50042541
C       0.52637057     -0.41598821     -0.02188721
C      -0.59516108     -0.26587963      1.01205234
C      -1.91194553     -0.10120367      0.28696732
C      -0.92310110      1.01355072      0.29177321
O       0.08618982      0.80477442     -0.70702552
H       3.97605331     -0.15537558      1.32707201
H       0.45190103     -1.28320312     -0.68383320
H      -0.50337493     -0.48500307      2.06359542
H      -2.76791255      0.02592270      0.93752981
H      -2.10559171     -0.63534199     -0.63586000
H      -1.09925589      2.02362377      0.63232812
