16
b3lypvtz=-204402.30606366
C      -0.56563166      0.26975119      1.25087092
C      -1.49000799      0.94022965      0.21705724
C      -1.54690532     -0.37198920     -0.58883616
C      -0.07616624     -0.09343178     -0.17789943
O      -0.29134794      1.34042673     -0.56177008
C       1.19932369     -0.74581779     -0.63376702
N       2.43098958     -0.12021149     -0.15999984
H       0.07621839      0.94969642      1.80613245
H      -0.97856708     -0.53071006      1.86527500
H      -2.25880064      1.69391494      0.36639281
H      -1.76049678     -0.25732283     -1.64897581
H      -2.04724842     -1.22956503     -0.13889306
H       1.18716204     -1.79274433     -0.31851407
H       1.20862080     -0.74682412     -1.72687010
H       2.48793573     -0.17017147      0.85069990
H       2.42492183      0.86476919     -0.40090276
