17
b3lypvtz=-220280.67379435
N      -0.20700063      1.50865674     -0.49037250
C      -0.01278333      0.18298153      0.09418653
C      -1.27032910     -0.39289910      0.71506595
F      -2.28704697     -0.46443432     -0.24608639
C       0.75922261     -0.72858542     -0.90416155
C       2.07878790     -0.34842280     -0.18746087
C       1.24367000      0.17330932      1.00943908
H      -0.95769927      1.47247153     -1.17209516
H      -0.49049949      2.17219505      0.22377808
H      -1.63344661      0.24495277      1.52694688
H      -1.11177427     -1.40438132      1.09569974
H       0.50368847     -1.78069937     -0.77662968
H       0.66545832     -0.46462931     -1.95566550
H       2.78239443     -1.15371807      0.01651612
H       2.60107100      0.45749583     -0.69779442
H       1.16300044     -0.56311880      1.81070582
H       1.52296250      1.13461774      1.43913789
