15
b3lypvtz=-240214.29902894
O      -2.02275284     -0.69141243     -0.24911513
C      -1.32493271      0.21471433      0.58345174
O      -1.23589196      1.49387597     -0.00714893
C       0.03288748     -0.40844427      0.89439620
C       0.87509981     -0.66691441     -0.33028184
C       1.86021853      0.30798278     -0.82237348
O       2.27592942     -0.85155596     -0.09983400
H      -2.88640247     -0.30992113     -0.44002475
H      -1.87580094      0.38755216      1.51214025
H      -0.70936645      1.41495263     -0.81141379
H       0.57411405      0.25421374      1.57080351
H      -0.13582083     -1.35200752      1.41820036
H       0.45469790     -1.36263241     -1.04907394
H       1.98650124      1.24957075     -0.29621451
H       2.13161978      0.31992576     -1.87351170
