15
b3lypvtz=-216931.54685303
O       2.76574248      1.00436250      0.29403736
C       2.58686803     -0.17558021      0.16910283
O       1.41916818     -0.77736460     -0.09522636
C       0.26943814      0.07649558     -0.25608823
C      -0.50311231      0.49667784      1.00810822
C      -1.81164465      0.21499617      0.22022017
C      -0.98032776     -0.64919209     -0.76814794
H       3.37112424     -0.93926687      0.25495892
H       0.55323867      0.93228870     -0.86550951
H      -0.35457355     -0.23103936      1.80616249
H      -0.32593783      1.49787107      1.39429742
H      -2.20560689      1.11359304     -0.25272922
H      -2.61873003     -0.28060071      0.75508244
H      -0.96359023     -1.69565220     -0.46426431
H      -1.20225648     -0.58758887     -1.83210427
