18
b3lypvtz=-181910.63327553
C       2.64199419     -0.04119197      0.70542574
C       1.72360255     -0.53892802     -0.42124001
C       0.30479711     -0.03597313     -0.31198593
C       0.12698174      1.45300673     -0.44473214
C      -0.70532883     -0.90423876     -0.14138154
C      -2.14203195     -0.61873193     -0.02234244
N      -2.73553696      0.35966093      0.53744127
H       3.64737959     -0.44650412      0.58437375
H       2.72398453      1.04625832      0.71096384
H       2.26698830     -0.35530782      1.68084301
H       2.13950148     -0.21348376     -1.38134756
H       1.72340829     -1.62996460     -0.43161471
H      -0.88557081      1.72335315     -0.73892277
H       0.82169050      1.85055904     -1.18834860
H       0.34834522      1.96849380      0.49410125
H      -0.46313933     -1.96341524     -0.14357908
H      -2.78893273     -1.37914479     -0.46899045
H      -2.06205588      0.99273616      0.97028538
