10
b3lypvtz=-272080.26791961
C      -0.02991121     -0.37591189     -0.05750070
N      -0.53616890      0.78845437      0.09946578
O      -1.93941863      0.72448415      0.04071707
C       1.47544562     -0.49104164     -0.02217528
O       2.04578682     -1.53233239     -0.15883971
O       2.10645135      0.67689872      0.17551931
O      -0.69948834     -1.50831635     -0.25081238
H      -2.21425346      1.63795662      0.16823039
H       1.43763727      1.37768943      0.25757012
H      -1.64608051     -1.29788100     -0.25217458
