11
b3lypvtz=-264625.01992215
N      -2.61669204     -0.01191450     -0.00000437
C      -1.70727740     -0.86411894     -0.00000382
O      -0.30739766     -0.70147682      0.00000668
C       0.29149289      0.50682788      0.00001342
O      -0.25574919      1.57752484      0.00000677
C       1.80722780      0.40086616      0.00000956
F       2.27331517     -0.89216743      0.00000934
H      -2.26746378      0.94297461      0.00000393
H      -1.89411269     -1.93239709     -0.00001188
H       2.17702135      0.91902707     -0.88713544
H       2.17703056      0.91903023      0.88714880
