19
b3lypvtz=-171807.71981468
C       2.05175089      0.69575414     -0.01583830
C       0.81720589      0.00534659     -0.56861190
C       0.30352729     -1.35445399     -0.00410510
C      -0.24459057     -0.59216056      1.23181673
C      -0.61929666      0.29014229     -0.00051442
C      -1.35635973      1.60164379      0.00114806
C      -1.04912492     -1.03766647     -0.69462147
H       2.09240890      0.70873610      1.07288353
H       2.95719273      0.19908182     -0.37248395
H       2.09693068      1.73206893     -0.35956418
H       0.84603233      0.02653370     -1.66241615
H       0.83127330     -2.30702494     -0.00669622
H      -1.08051788     -1.06101663      1.75304528
H       0.47411626     -0.19002066      1.94267744
H      -2.34155162      1.49837355      0.46164107
H      -1.49990513      1.97209174     -1.01662117
H      -0.80637635      2.36263822      0.55980182
H      -1.93100953     -1.53317191     -0.28660463
H      -1.05584887     -1.03765269     -1.78593345
