13
b3lypvtz=-211365.55965696
C      -0.85978258     -1.28686289     -0.65814874
C      -0.44283140      0.02149284     -0.08578964
C       0.78959800      0.52900325      0.26855991
N       2.05006671     -0.06405335      0.13828958
N       0.63262259      1.80062506      0.72390231
N      -0.62909413      2.12241187      0.67592792
N      -1.28180463      1.05360346      0.20525745
H      -2.28116267      1.09733129      0.09491342
H      -0.00548361     -1.76154939     -1.14072496
H      -1.64008050     -1.16571321     -1.41190200
H      -1.23789751     -1.97570000      0.10230499
H       2.76994125      0.57112734      0.45568212
H       2.13580846     -0.94181627      0.63162764
