13
b3lypvtz=-213755.70209721
O       2.13993491     -1.18383124      0.16868144
C       1.05227969     -0.39936874      0.09157966
N       1.06702884      0.80449746     -0.32036353
C      -0.29072356      1.35074552     -0.15985269
C      -1.18527999      0.19556174      0.28452828
N      -1.27335318     -0.96494579     -0.59708002
C      -0.26920711     -0.96414872      0.48475671
H       2.89930736     -0.64689797     -0.10039770
H      -0.62803630      1.80567763     -1.09508627
H      -0.27254414      2.14285248      0.59303072
H      -2.05187719      0.37562173      0.90651965
H      -0.83149160     -0.78120183     -1.49371995
H      -0.35603774     -1.73446227      1.23750370
