14
b3lypvtz=-226988.66009792
N       2.12383381      0.21306887     -0.19300392
C       0.76031176     -0.05194488      0.05204959
C      -0.11012539      1.16349911      0.21190741
O      -1.44765258      0.80267711      0.54702341
C      -1.87452961     -0.30721672     -0.19222470
O      -1.14928784     -1.47691722      0.13245843
C       0.21136114     -1.26841491      0.07270966
H       2.54931052      0.78897350      0.52390066
H       2.67309655     -0.62720653     -0.31300357
H      -0.08365004      1.77812300     -0.69808825
H       0.24632329      1.78539529      1.03789445
H      -2.91255613     -0.49512048      0.06722728
H      -1.76066427     -0.11431038     -1.26882941
H       0.77432879     -2.19040577      0.01997895
