13
b3lypvtz=-211361.16827663
C       2.50160541     -0.39190177      0.07123088
N       1.48853658      0.63153487     -0.13604713
C       0.15870140      0.27898213     -0.03873403
N      -0.25354896     -0.98810711     -0.03766379
N      -1.58629940     -0.87152404      0.00634645
H      -2.18412687     -1.67844594      0.01197239
N      -2.06589099      0.35421195      0.04545066
C      -0.97882414      1.11807404      0.01631396
H       2.43985285     -0.86713972      1.05698524
H       2.39091958     -1.17253352     -0.68001526
H       3.48457247      0.06145377     -0.04507774
H       1.69992273      1.52122715      0.28488832
H      -1.04806566      2.19186720      0.02930906
