12
b3lypvtz=-223836.89534673
N       3.16718279      0.20004206     -0.00001566
C       2.08388924     -0.44691108      0.00001248
N       0.80597854      0.15004716      0.00001739
C      -0.21572500     -0.60774586      0.00001638
C      -1.57510082     -0.00956966      0.00000035
N      -2.65480358     -0.67505181     -0.00002220
O      -1.60075254      1.33136058      0.00000631
H       2.97642944      1.20455368     -0.00001943
H       2.11377114     -1.54026302      0.00000837
H      -0.15575908     -1.70014957      0.00000586
H      -2.45911219     -1.67308070     -0.00002122
H      -0.67781394      1.63615922      0.00001637
