16
b3lypvtz=-230363.71317674
C      -2.79865624      0.16545876      0.27084881
C      -1.44904055     -0.35901687     -0.20989488
N      -0.49028121      0.72712911     -0.29399715
C       0.73028689      0.56952425      0.01574323
N       1.62588236      1.60902695     -0.16607486
C       1.36430746     -0.71065939      0.53802613
F       1.27043319     -1.72482607     -0.41078643
H      -3.54341871     -0.63270149      0.27978125
H      -2.72038035      0.57148156      1.28104964
H      -3.15127353      0.96322090     -0.38335477
H      -1.12158219     -1.18216167      0.43718928
H      -1.56683258     -0.78961172     -1.20962833
H       2.45144708      1.63265728      0.40753461
H       1.19698700      2.50532562     -0.33667587
H       2.42274517     -0.56940693      0.76101666
H       0.85197721     -1.04985429      1.44023068
