14
b3lypvtz=-203684.93300369
N       2.34638892      0.47504992      1.01375335
C       1.22149809      0.26403558      0.49376320
C       0.15390108      1.06976612     -0.23897099
C      -0.51493774     -0.26850294     -0.64476582
C      -1.96640254     -0.44681202     -0.30849535
O      -2.65635635      0.38003389      0.23153548
C       0.47636603     -1.04862171      0.29864157
H       2.59852154      1.46372775      0.96434293
H      -0.48307113      1.65172051      0.42982103
H       0.50510657      1.71359199     -1.04477370
H      -0.35862411     -0.54427715     -1.68899268
H      -2.38466374     -1.44060396     -0.57403797
H       1.05085830     -1.85749891     -0.14894380
H       0.01141509     -1.41160907      1.21722275
