18
b3lypvtz=-205191.16753175
C       3.32165177     -0.33331632     -0.03776518
N       2.12318431      0.48450879     -0.16401561
C       0.90252778     -0.20939691      0.22760787
C      -0.31700661      0.69603746      0.06795258
C      -1.59377439      0.03206859      0.50674021
C      -2.88146814      0.29590974     -0.13783285
O      -2.17415673     -0.92094136     -0.39671456
H       3.27084143     -1.29242892     -0.57696315
H       4.18457832      0.22101035     -0.40757108
H       3.50086023     -0.55803674      1.01589233
H       2.03303153      0.80649908     -1.12069470
H       0.74013038     -1.14103666     -0.33776777
H       1.00590026     -0.49843711      1.27868062
H      -0.41932051      0.99658198     -0.97894044
H      -0.16135554      1.60705859      0.65282252
H      -1.61649284     -0.29433072      1.54490599
H      -2.92600503      0.99095838     -0.97086385
H      -3.80274323      0.18586781      0.42546707
