18
b3lypvtz=-205202.10969055
C      -2.11307609      1.00672516      0.12772249
C      -1.08828973     -0.02191747     -0.31233230
O      -1.62553885     -1.31676530     -0.04986625
C       0.24995171      0.12448342      0.40296177
C       1.27590109      1.14887089     -0.14170194
C       2.30428587     -0.00386987     -0.12680473
N       1.19709871     -0.97852205      0.07312574
H      -1.74945483      2.01983907     -0.05282121
H      -2.32668826      0.89771870      1.19240785
H      -3.04470770      0.87288434     -0.42146154
H      -0.90387902      0.08205796     -1.39092341
H      -0.95136707     -1.94641633     -0.33556919
H       0.07450218      0.23125489      1.47951600
H       1.49636473      2.00689362      0.48838780
H       1.03152785      1.49706192     -1.14484296
H       2.88177191     -0.16913122     -1.03759667
H       2.99608694      0.05901756      0.71806322
H       1.35376956     -1.63598530      0.82644733
