18
b3lypvtz=-202792.53288656
C       3.06489242     -0.86302518      0.16051100
C       1.71939448     -0.42417469     -0.39993963
N       1.21803709      0.75424413      0.30299286
C      -0.07356560      1.24261501     -0.18034800
C      -1.20479277      0.41535605      0.35307256
N      -2.07257100     -0.09388478     -0.42211463
N      -3.14063944     -0.75709998      0.13466758
H       3.42655963     -1.75566215     -0.35191355
H       2.98528887     -1.08123053      1.22594218
H       3.81856432     -0.08167812      0.03301677
H       1.80485423     -0.25344200     -1.48581133
H       0.98865136     -1.22643740     -0.27533019
H       1.90313922      1.49759538      0.24858346
H      -0.15515224      1.26910612     -1.27610542
H      -0.18862659      2.26917821      0.18205233
H      -1.24469886      0.27812229      1.44019367
H      -3.48616447     -1.45309293     -0.50811431
H      -2.96208666     -1.15209043      1.05538765
