14
b3lypvtz=-227005.7311041
C       0.31197794     -0.96367432      0.22388921
C      -1.12671867     -0.97010239     -0.29379768
N      -1.84558101      0.26775479     -0.00794846
C      -1.17043681      1.30247721      0.23733874
O       0.18216063      1.46349743      0.24136181
C       0.98265961      0.33155046     -0.17374127
O       2.21924168      0.42994857      0.45063851
H       0.32580241     -1.02441295      1.31392965
H       0.88603521     -1.80471046     -0.16577285
H      -1.68383845     -1.79403977      0.15370849
H      -1.15267289     -1.13910791     -1.37528293
H      -1.65482016      2.24080128      0.48804400
H       1.07985358      0.41283051     -1.26333326
H       2.64633692      1.24718755      0.17096604
