16
b3lypvtz=-181118.78481214
C      -0.93861101     -0.95523758      0.27328335
C      -1.24863664      0.55513975      0.43950975
C      -0.23869669      1.23930661     -0.47099678
C       0.55123045      0.25980254     -1.23473167
C       0.48817887     -0.95879471     -0.28193999
C       1.41677490     -0.13402870      0.63666988
N       1.22401032      1.10863117     -0.18747827
H      -1.01855689     -1.50806060      1.21152419
H      -1.62566670     -1.41237358     -0.44274840
H      -2.26571700      0.80231432      0.13290153
H      -1.14179257      0.88639972      1.47470952
H      -0.47164557      2.20568317     -0.89698948
H       0.81094136      0.29672789     -2.28377612
H       0.85283781     -1.92244254     -0.62834443
H       2.46447293     -0.42195169      0.56782189
H       1.14087643     -0.04111577      1.69058502
