11
b3lypvtz=-264617.21938953
N      -1.18286774      1.28877244     -0.43825162
C      -0.37406319      0.21083193     -0.10060128
C      -0.78237797     -1.05764382     -0.03862124
F      -2.06543798     -1.30913051     -0.43106497
O       0.89742596      0.67479236      0.20860877
C       1.90314882     -0.10637238      0.66052972
O       1.86267573     -1.27857858      0.88678465
H      -2.07642658      0.99829474     -0.80613971
H      -0.72626593      1.95555896     -1.04518417
H      -0.23882447     -1.91060736      0.31364014
H       2.78301335      0.53388221      0.79039972
