16
b3lypvtz=-204448.94641439
C       2.78222190      0.18627912      0.39536686
C       1.52897357     -0.02123634     -0.01984998
O       1.12650170     -1.32631572     -0.27435491
C       0.52926206      1.02110390     -0.20950073
C      -0.81202477      0.86742072     -0.21427622
N      -1.54445994     -0.28774137     -0.03441761
C      -2.95899390     -0.19503318      0.28612457
H       3.10841816      1.17706043      0.67242848
H       3.47949550     -0.63386048      0.47878646
H       0.50448787     -1.31223008     -1.01063498
H       0.90492898      2.02391566     -0.35363216
H      -1.42475536      1.74115893     -0.40586534
H      -1.05163499     -1.03444378      0.43200437
H      -3.45604033      0.45721670     -0.43267786
H      -3.41329467     -1.18171702      0.20613006
H      -3.15257177      0.19463252      1.29291197
