17
b3lypvtz=-191985.38885515
C       3.05301164      0.33687806     -0.32929004
C       2.03931344     -0.52044492      0.42586267
N       0.72017107      0.08629956      0.38439485
C      -0.23881088     -0.58238619     -0.09921516
C      -1.61570067     -0.03622818     -0.18127797
C      -1.85197902      1.35703071      0.33314758
N      -2.48938473     -0.81400789     -0.68899498
H       2.80662492      0.38513381     -1.39079588
H       4.05476347     -0.08356210     -0.23030265
H       3.06244896      1.35371035      0.06338107
H       2.03193868     -1.54490049      0.02867773
H       2.33439950     -0.57653669      1.47763970
H      -0.13282394     -1.60217876     -0.48785884
H      -2.89692521      1.64106641      0.21423407
H      -1.21878444      2.07062706     -0.19570584
H      -1.57455254      1.42571803      1.38592312
H      -3.40750226     -0.36825879     -0.70983642
