13
b3lypvtz=-216154.69766702
C       2.25358850      0.29083757     -0.35168689
O       0.82435175      0.26112091     -0.51591162
C       0.19822325     -0.80055500      0.01197887
O       0.75297559     -1.71043421      0.56981346
C      -1.30956880     -0.72503982     -0.21637115
C      -1.93279087      0.45291167      0.37248344
C      -2.45364963      1.41081408      0.86963386
H       2.58094053      1.21369018     -0.82054311
H       2.71037047     -0.57011462     -0.83705205
H       2.51381053      0.28379119      0.70534270
H      -1.73997427     -1.63533552      0.19939739
H      -1.48552303     -0.73242453     -1.29616612
H      -2.91275402      2.26073810      1.30908123
