14
b3lypvtz=-231980.14345124
C       2.71061451      0.04856634      0.20837225
C       1.62684237     -0.58397243     -0.23279521
C       0.23844815     -0.13534791     -0.05284699
C      -0.07218477      1.16126550     -0.16636578
F      -1.31132373      1.66766774      0.05063723
O      -0.59638967     -1.18062347      0.19482723
C      -2.00657635     -1.02577407      0.02293571
H       3.70105951     -0.33369112      0.00251050
H       2.64441399      0.95851028      0.79030368
H       1.72590509     -1.52814648     -0.75819293
H       0.64751855      1.91110611     -0.45000301
H      -2.41909307     -2.02939565      0.09413617
H      -2.23606284     -0.60308909     -0.95659041
H      -2.43917575     -0.39522375      0.79846357
