16
b3lypvtz=-227750.96970117
C      -2.56926134     -0.07260421     -0.50012771
O      -1.74033050     -0.60839983      0.51851310
C      -0.39876373     -0.76512159      0.15449462
C       0.39760301      0.53593984      0.08992758
O      -0.09737676      1.61215733      0.32602135
C       1.86105639      0.43484708     -0.33822904
N       2.47464474     -0.85405059     -0.02372684
H      -2.29566791      0.95492076     -0.74733698
H      -3.58727431     -0.08802721     -0.11562391
H      -2.52469738     -0.69004384     -1.40662289
H      -0.28727191     -1.28431781     -0.81012539
H       0.06894918     -1.41700286      0.89423000
H       2.37177869      1.31483293      0.06777742
H       1.85509136      0.55279716     -1.42659702
H       3.30099498     -1.00780634     -0.58594448
H       2.76779848     -0.88890582      0.94492717
