12
b3lypvtz=-226234.49689169
C       1.95334963      0.70426833     -0.80615593
N       1.06505605      1.17234299     -0.03425319
C       0.01464208      0.37329937      0.41752009
O      -0.25435693      0.56071659      1.72599717
C      -0.72702440     -0.44860260     -0.35828538
C      -1.89140332     -1.17596603      0.11705196
O      -2.53729401     -1.93747288     -0.57695339
H       2.73328201      1.36731832     -1.16890700
H       1.97581735     -0.33932063     -1.12754169
H       0.30968668      1.27870679      2.04212336
H      -0.47025446     -0.55551662     -1.40214976
H      -2.17140068     -0.99957363      1.17155377
