19
b3lypvtz=-171853.57283556
C       1.25287224      0.78096114     -0.49254646
C       1.25288036     -0.78094976     -0.49254514
C       0.00000569     -1.13061153      0.33832853
C      -1.25287356     -0.78096086     -0.49254408
C      -1.25288145      0.78094954     -0.49254309
C      -0.00000500      1.13061152      0.33832879
C       0.00000128      0.00000003      1.38587567
H       2.15450313      1.17329670     -0.01960221
H       1.20565206      1.20218076     -1.49765897
H       2.15451438     -1.17327487     -0.01959812
H       1.20566693     -1.20217177     -1.49765698
H       0.00001012     -2.14775168      0.72792491
H      -2.15450311     -1.17329645     -0.01959724
H      -1.20565598     -1.20218108     -1.49765647
H      -1.20566903      1.20217159     -1.49765495
H      -2.15451453      1.17327539     -0.01959488
H      -0.00000927      2.14775170      0.72792505
H      -0.88784403     -0.00000435      2.02091014
H       0.88784776      0.00000398      2.02090852
