18
b3lypvtz=-181899.82555436
C       2.90022657      0.11018663     -0.00002005
N       1.52452149     -0.33787168     -0.00029577
C       0.60346272      0.52624227      0.00017739
C      -0.84540589      0.18649966      0.00003742
C      -1.78059142      1.37757632     -0.00005501
C      -1.26135841     -1.06712075      0.74703605
C      -1.26125497     -1.06716956     -0.74687943
H       3.41314642     -0.29123822     -0.87694956
H       3.41310586     -0.29218661      0.87649912
H       3.00576577      1.20400157      0.00057563
H       0.83368131      1.60326563      0.00076334
H      -2.82197046      1.05497596      0.00004541
H      -1.62840918      2.00331230      0.88301547
H      -1.62850981      2.00309762     -0.88329453
H      -2.21078103     -1.03895749      1.26514666
H      -0.47152903     -1.61125389      1.24488150
H      -0.47135304     -1.61133335     -1.24457484
H      -2.21061391     -1.03904943     -1.26510779
