15
b3lypvtz=-193590.52971966
C      -2.96655635     -1.27668480      0.44151951
C      -2.00724995     -0.56007624      0.33118341
C      -0.83257744      0.24262954      0.19200410
C      -0.90497184      1.57395210      0.30210424
C       0.44135698     -0.52991969     -0.08443188
C       1.71705997      0.29742475     -0.19100122
O       2.84642759     -0.50937525     -0.50873955
H      -3.82357002     -1.89497165      0.54015223
H      -0.03360766      2.20454664      0.20189175
H      -1.84824968      2.06412081      0.49637040
H       0.56244997     -1.27935806      0.70604347
H       0.31447845     -1.09918744     -1.00957897
H       1.88786148      0.86161120      0.73297170
H       1.63812502      1.01790426     -1.00559773
H       3.00892347     -1.11261618      0.22300854
