15
b3lypvtz=-216932.34461837
C       2.08784848     -0.97718176     -0.56432148
C       1.10363531     -0.80901438      0.60054996
C      -0.17998260     -0.11398878      0.21391301
C      -0.14538175      1.32432779     -0.01440930
O       0.83948623      2.02501538      0.09972416
C      -1.32791533     -0.81593104      0.09576526
O      -2.55775510     -0.38657553     -0.24759049
H       2.37035995     -0.00879849     -0.97519980
H       2.99710847     -1.47876307     -0.22878650
H       1.64917781     -1.57505888     -1.36538213
H       0.86658454     -1.78729231      1.02498909
H       1.58610898     -0.22970035      1.39049097
H      -1.10759299      1.80542085     -0.30589806
H      -1.34609556     -1.88193147      0.29042498
H      -2.55452041      0.56051204     -0.43137466
