10
b3lypvtz=-248779.17764529
N      -2.46053369      0.39454274     -0.94309038
C      -1.45690324      0.12983754     -0.44736106
C      -0.12951942     -0.19758833      0.13126010
O      -0.17717502     -0.01916338      1.50056321
O       0.27506846     -1.48496785     -0.26199538
C       0.95459317      0.72275304     -0.49703617
O       1.63335307      1.41546567      0.20535876
H       0.59828737      0.51464641      1.74507440
H      -0.30671692     -2.13240526      0.15629240
H       1.06954622      0.65687943     -1.58916588
