11
b3lypvtz=-264622.45546036
N       1.28737829     -1.06697718      0.35544419
C       0.75788209      0.17303770      0.33705116
F       1.58291485      1.12954348      0.80359776
C      -0.49294867      0.52992304     -0.05586060
O      -0.99112025      1.81199762      0.07931628
C      -1.37642940     -0.43722844     -0.65023475
O      -1.12234008     -1.63079733     -0.80090686
H       0.68943641     -1.75656714     -0.09653162
H       2.28481876     -1.14130484      0.23020005
H      -0.27786222      2.40706833      0.33136287
H      -2.34162979     -0.01869524     -0.98353848
