11
b3lypvtz=-236341.89514392
C      -1.11434595     -0.72591635     -0.16245887
C      -1.05147418      0.76290107      0.15279101
O      -1.96806519      1.52829574      0.30723381
N       0.29342431      1.02832950      0.21965307
C       1.08648938     -0.09062047     -0.01032542
N       2.34204882     -0.09166429     -0.00040739
O       0.25451145     -1.15085335     -0.24095160
H      -1.63017506     -1.27243277      0.62737764
H      -1.61562642     -0.90418425     -1.11406364
H       0.68995596      1.93312137      0.41396066
H       2.71325688     -1.01697620     -0.19280928
