15
b3lypvtz=-214541.14225187
C      -3.15936411      0.18443614      0.34602790
N      -2.19366633      0.09241679     -0.45821179
C      -0.93468376     -0.44151616      0.03125439
C       0.20131107      0.52700548     -0.28745935
C       1.57031025     -0.08613972     -0.02431241
N       2.56670488      0.81226988      0.22185310
O       1.77145411     -1.28604318     -0.04072145
H      -3.09829686     -0.11373752      1.40067412
H      -4.11288422      0.57365976     -0.00452958
H      -0.73493641     -1.37964602     -0.48869597
H      -0.96233318     -0.66099340      1.10753607
H       0.08253381      1.45656983      0.27427710
H       0.14858312      0.79253231     -1.34717420
H       3.50833207      0.46746566      0.30119806
H       2.41756055      1.80276113      0.15931502
