16
b3lypvtz=-204447.2830311
C      -2.66572082     -0.57589776      0.00799843
N      -1.31510875     -0.16676167     -0.32481950
C      -0.84523976      1.04913802      0.09462353
C       0.43243680      1.49044486      0.16063433
C       1.67797245      0.80526152     -0.13478821
C       2.01356789     -0.48929357     -0.11436195
O       1.15174746     -1.50155923      0.27118903
H      -2.95209628     -1.42726861     -0.60949271
H      -3.36105202      0.23667650     -0.20731788
H      -2.79114803     -0.85864909      1.06144720
H      -0.63031860     -0.91036077     -0.33055255
H      -1.63121108      1.75410527      0.34442377
H       0.53920277      2.53880481      0.40741382
H       2.50545668      1.45465730     -0.39893671
H       3.00876777     -0.81418626     -0.38849073
H       1.59532953     -2.34765332      0.17501014
