15
b3lypvtz=-214501.8232487
C      -2.73361951     -0.72138743      0.00000322
N      -1.76429073      0.11171849      0.00000074
N      -0.51110484     -0.35183410     -0.00001581
C       0.59179619      0.49861029     -0.00000172
C       0.33794401      1.97150898      0.00000105
C       1.82392756     -0.02250742      0.00000864
O       1.99423787     -1.39936798      0.00002029
H      -2.59229302     -1.80442127     -0.00000315
H      -3.73858381     -0.32521297      0.00001653
H      -0.34021273     -1.35097791     -0.00001127
H      -0.23901280      2.27295626     -0.87593621
H       1.28411549      2.51025249      0.00000561
H      -0.23901880      2.27295284      0.87593551
H       2.70910166      0.59459875      0.00001724
H       2.93055446     -1.60616601     -0.00004867
