13
b3lypvtz=-192818.61425158
C      -1.84846993     -1.79405036      0.00001612
C      -1.33131706     -0.70946246      0.00001153
C      -0.73353954      0.58662371      0.00000565
C      -1.45677748      1.70939590     -0.00001737
O       0.63750107      0.69410083      0.00004006
C       1.45054040     -0.40695451     -0.00004598
C       2.76875680     -0.27634347      0.00001581
H      -2.31390781     -2.74845673     -0.00001485
H      -2.53296976      1.65935881     -0.00002650
H      -0.97069972      2.67368325     -0.00002127
H       0.94425041     -1.36242647     -0.00016823
H       3.24490638      0.69361326      0.00013959
H       3.38929823     -1.15880976     -0.00006054
