18
b3lypvtz=-205205.56170802
C      -3.13262033     -0.71345751     -0.05791468
O      -1.74884277     -0.96505194     -0.17394309
C      -0.94916747      0.12095798      0.24951158
C       0.51285588     -0.25724884      0.08243482
C       1.45263585      0.86258544      0.51594656
C       2.92752162      0.57290849      0.38328590
N       3.50172823     -0.47239385     -0.03848499
H      -3.42106967     -0.51475356      0.98219017
H      -3.65522702     -1.60277574     -0.40536733
H      -3.44031508      0.14271948     -0.67173797
H      -1.16568460      0.36268089      1.30076887
H      -1.18384126      1.01732067     -0.34373386
H       0.68471964     -0.51313463     -0.96588964
H       0.70408677     -1.16145711      0.66548706
H       1.24710243      1.77696894     -0.05374836
H       1.26691280      1.13544543      1.56181906
H       3.57544094      1.39440747      0.70183394
H       2.82376403     -1.18562161     -0.31365803
