17
b3lypvtz=-215297.83525627
C       1.78454013      1.09017616     -0.34804433
C       1.30489382     -0.15899847      0.38714598
N       1.24039647     -1.27208390     -0.56234208
C      -0.07062016      0.03132986      1.06439101
C      -1.22881529      0.17783491      0.10837846
N      -1.66952499      1.22415904     -0.45352414
O      -1.83841077     -1.00887541     -0.12828402
H       1.85769557      1.94236998      0.33042314
H       2.77623825      0.92184392     -0.77310656
H       1.10878837      1.34037034     -1.16585341
H       2.00779281     -0.34847113      1.21263619
H       0.87157196     -2.10959096     -0.12787575
H       2.16304534     -1.49272572     -0.91709046
H      -0.26768745     -0.82599088      1.71050999
H      -0.02317155      0.91577648      1.70061192
H      -1.13802896      2.04503298     -0.18335168
H      -2.53664957     -0.83077919     -0.77531327
