10
b3lypvtz=-251373.10893276
F       2.35165626      0.28247860     -0.56257630
C       1.61569179     -0.33925985      0.43846720
C       0.15802842     -0.14490448      0.19111512
N      -0.61671743     -1.13779251     -0.14239127
O      -1.87634113     -0.53876928     -0.27380671
C      -1.69550880      0.75682406     -0.00257686
N      -0.48097809      1.07213094      0.29429791
H       1.89760451      0.11081746      1.39113358
H       1.85271630     -1.40218859      0.43817999
H      -2.56160783      1.39688564     -0.05222766
