14
b3lypvtz=-203665.47596804
C       0.50867204     -1.34753220     -0.23296438
C      -0.60271663     -0.50296910     -0.87080816
C      -1.52221626     -0.00768363      0.20237967
C      -0.21302420      0.70447083      0.03602774
C       0.92643213     -0.10509040      0.56361419
N       1.99169655      0.14157924      1.19259325
O      -0.20863488      2.07016765     -0.16292222
H       1.29696994     -1.65257450     -0.92062776
H       0.18118317     -2.21198154      0.34671850
H      -0.86739751     -0.48947596     -1.91705546
H      -2.35817263      0.58723666     -0.14240124
H      -1.72585179     -0.61207506      1.07946139
H       2.01436182      1.11858002      1.49315507
H       0.57869826      2.30734797     -0.66717058
