12
b3lypvtz=-252154.91396897
N      -0.18784594     -1.68852606      0.01582565
C      -0.74377197     -0.51882449      0.00421641
N      -2.08324614     -0.25320498     -0.04253284
C       0.14052875      0.63707245      0.00401250
F      -0.46558331      1.86327675      0.01172230
C       1.48324974      0.56397693     -0.00185220
O       2.16433604     -0.57724756     -0.00651348
H      -0.84828431     -2.45832972      0.00421292
H      -2.39233343      0.68754671      0.12957451
H      -2.73234355     -0.99349937      0.15630217
H       2.08426314      1.46522698     -0.00250160
H       1.47207898     -1.30725263     -0.00057934
