13
b3lypvtz=-234688.6683351
N      -1.34164943      1.29446551     -0.03019305
C      -1.20120369      0.03438578     -0.00575047
N      -2.17795962     -0.93502198      0.09307626
O       0.00925706     -0.59211205     -0.03254706
C       1.24435499      0.08215065      0.00086810
N       1.47748964      1.31345714      0.04378694
N       2.21915314     -0.89108591     -0.07240719
H      -2.31876977      1.56518434      0.00393115
H      -1.90678120     -1.86250570     -0.19026423
H      -3.10278093     -0.66013157     -0.19043785
H       0.61590876      1.85092685      0.01443949
H       3.13487193     -0.54416400      0.16099753
H       1.98627811     -1.78215506      0.33367138
