16
b3lypvtz=-202044.92579264
C      -0.96772893     -1.42166017     -0.31020866
C       0.00438035     -0.22133740     -0.52076725
C      -1.09056196      0.61742019      0.16389053
N      -1.37538219      1.83189114      0.38100899
N      -1.79965381     -0.51920464      0.49651623
C       1.34539946     -0.30657113      0.21674967
N       2.11937041      0.92815742      0.29370561
H      -0.56460622     -2.27185717      0.24313512
H      -1.44071816     -1.77459338     -1.22916574
H       0.15739587      0.05068499     -1.56631782
H      -0.65858545      2.44667771      0.00726430
H      -2.78918654     -0.57340046      0.68362052
H       1.96483373     -1.06868843     -0.26377084
H       1.16448546     -0.65250770      1.23747624
H       1.60604767      1.64225890      0.79594596
H       2.32451035      1.29273012     -0.62908284
