15
b3lypvtz=-193588.12626425
C       3.32308991      0.54037292      1.25526551
C       2.51731428     -0.03719223      0.57994426
C       1.52262560     -0.73846863     -0.23095492
C       0.10286910     -0.40563433      0.15825151
C      -0.80008526      0.07897732     -0.68234145
C      -2.21866183      0.40265446     -0.33548274
O      -2.48422831      0.08848173      1.02322032
H       4.03751060      1.05245068      1.84954208
H       1.68608718     -0.50725115     -1.28685570
H       1.68849950     -1.81645429     -0.12114639
H      -0.17091044     -0.58547105      1.19025761
H      -0.53224639      0.27339903     -1.71749166
H      -2.39837706      1.46897645     -0.53443654
H      -2.88586124     -0.15854865     -1.00567543
H      -3.38772565      0.34380774      1.22590355
