15
b3lypvtz=-191224.00363611
C      -2.53615988     -0.37939195      0.15035513
C      -1.16512322     -0.95911652      0.02849909
C      -0.01855814     -0.27313292     -0.12769986
C      -0.03088059      1.16484862     -0.10835447
N      -0.03044382      2.31702052     -0.07541951
N       1.23043091     -0.84827235     -0.39613707
C       2.41417377     -0.35624759      0.30418302
H      -2.52141284      0.70921112      0.17092307
H      -3.02626117     -0.73091098      1.06229960
H      -3.16988758     -0.69157755     -0.68528380
H      -1.09145419     -2.04263785      0.03296207
H       1.17397392     -1.85608547     -0.40778058
H       2.52687850      0.71258484      0.12866669
H       3.29182766     -0.85565130     -0.10305903
H       2.38300968     -0.52508261      1.38754965
