14
b3lypvtz=-180404.72257373
N       3.55609009      0.63849417     -0.22463548
C       2.41727444      0.45284101     -0.22084662
C       1.01730871      0.21481234     -0.16837834
C       0.18972586      0.23097030     -1.21824984
C      -1.23550187     -0.00866217     -0.81044810
C      -1.11337595     -0.50183044      0.65209755
C       0.28078517     -0.03755660      1.13457805
H       0.23147480      0.88604868      1.71872545
H       0.49607847      0.42952879     -2.23577959
H      -1.74133033     -0.72714301     -1.45835903
H      -1.80564745      0.92449130     -0.88459153
H      -1.91687219     -0.13275742      1.28714656
H      -1.15813403     -1.59115195      0.67053132
H       0.78232427     -0.77808499      1.75810961
