13
b3lypvtz=-216140.00721215
C       3.10528661      0.80172150      0.59041170
C       2.00385660      0.45640984      0.26962409
C       0.67086716      0.04001066     -0.12593590
C      -0.34297300     -0.01568591      1.01859847
O      -0.09048832      0.29533606      2.15362524
C      -1.73814503     -0.53742606      0.66524260
O      -2.01952473     -0.63944298     -0.72097045
H       4.07883891      1.10701116      0.88216173
H       0.68790804     -0.94518089     -0.60327420
H       0.26932640      0.70564850     -0.89675971
H      -2.46705872      0.07515110      1.20187494
H      -1.80495301     -1.54743358      1.07842963
H      -2.35304091      0.20398059     -1.03912815
