16
b3lypvtz=-181122.8211225
C      -2.46356981      1.50052662     -0.11011002
C      -1.64370329      0.64647383      0.08179243
C      -0.65795453     -0.40931254      0.33142712
C      -1.15880594     -1.76902273     -0.17709382
N       0.60095278     -0.07623391     -0.34479651
C       1.61965315      0.12527991      0.37357685
C       2.95623422      0.45644813     -0.20715262
H      -3.18354447      2.26012446     -0.28543612
H      -0.50833143     -0.47548444      1.41998438
H      -2.10921018     -2.02373035      0.29104569
H      -0.42872577     -2.54329118      0.05964930
H      -1.29427329     -1.73490239     -1.25693164
H       1.56751573      0.06730889      1.47125079
H       3.69995600     -0.28363910      0.10012293
H       3.30233153      1.42398651      0.16626272
H       2.90329930      0.48723328     -1.29317448
