16
b3lypvtz=-204421.96672614
C       1.86620196     -0.79794463     -0.23860111
C       0.59329938     -0.02191983     -0.29581439
C      -0.67057959     -0.21109338      0.57197956
C      -1.02121563      1.29381418      0.32041723
C       0.28650284      1.40906786     -0.46430438
O       0.18023838      0.49876753     -1.56644749
N      -1.63962350     -1.19578560      0.12447824
H       2.64370548     -0.29894133     -0.81685527
H       1.72629380     -1.79775788     -0.65786376
H       2.21057548     -0.90772502      0.79150018
H      -0.35283215     -0.33140901      1.61765148
H      -1.06072323      1.88460628      1.23447618
H      -1.91215332      1.46642698     -0.28210431
H       0.94303942      2.26058570     -0.58392885
H      -1.29348634     -2.13721074      0.27537583
H      -2.49924298     -1.11348110      0.65602547
