11
b3lypvtz=-213039.58824795
C      -1.44204252      0.14922062      0.06896539
C      -0.82733552     -0.80880551      0.86535734
N       0.48715862     -1.01295255      0.86533349
C       1.18554578     -0.23364805      0.04555958
N       0.71512756      0.71655946     -0.76411139
C      -0.60385861      0.89840264     -0.74273224
O       2.51209453     -0.43435174      0.04067588
H      -2.51068566      0.30171215      0.08129006
H      -1.40760519     -1.43913149      1.53061955
H      -0.99334262      1.66938529     -1.39834055
H       2.88494363      0.19360918     -0.59261710
