14
b3lypvtz=-203716.87526277
C      -1.89509214      0.33102052      0.07455091
N      -0.46700223      0.14775434      0.00261180
C       0.20130700     -1.10734828      0.25052383
C       1.64914816     -0.76139670      0.04860277
C       1.76902860      0.52430755     -0.27070796
C       0.41909118      1.15605519     -0.31208048
O       0.13143181      2.31062635     -0.56595104
H      -2.10474971      1.37251096     -0.16015496
H      -2.27700375      0.10912501      1.07506208
H      -2.41677517     -0.30674941     -0.64463116
H      -0.12895644     -1.89064874     -0.44360114
H       0.01092189     -1.47834858      1.26569182
H       2.44010741     -1.48794017      0.15867757
H       2.66864338      1.08083197     -0.47839405
