13
b3lypvtz=-216169.43570593
C      -0.24721817     -1.24393010      0.11073871
C       1.16599643     -0.76949240     -0.05876238
C       1.46015273      0.48457514     -0.38606829
O       0.55372551      1.49032147     -0.53929440
C      -0.70774984      1.30061090      0.10127391
C      -1.26111706     -0.11750941      0.06646023
O      -2.45301233     -0.30832078      0.07036457
H      -0.52788101     -1.96314726     -0.66521526
H      -0.39201782     -1.77369815      1.05906047
H       1.97419276     -1.48049999      0.03832351
H       2.46590616      0.82788808     -0.58610918
H      -1.41589883      1.97600943     -0.37146256
H      -0.61507854      1.57719306      1.16069066
