14
b3lypvtz=-203693.05988516
C      -3.03832877     -0.25848959     -0.00007397
C      -1.72310139     -0.48261316      0.00008176
N      -0.81099994      0.56123978      0.00000640
C       0.45726886      0.39389435     -0.00001957
O       1.23483520      1.50377612     -0.00002128
C       1.22247699     -0.85550081     -0.00005481
C       2.55305682     -0.91218793      0.00001877
H      -3.73959793     -1.08014367     -0.00003312
H      -3.42779818      0.75027337     -0.00025860
H      -1.36347769     -1.50967250      0.00029015
H       0.62202501      2.25314112      0.00002052
H       0.64665886     -1.76934799     -0.00016000
H       3.15753228     -0.01651979      0.00013497
H       3.06765188     -1.86361529     -0.00003220
