17
b3lypvtz=-194365.49869903
C      -2.16774781      0.10224157      0.00000123
C      -0.66357585      0.00361017     -0.00000036
C       0.14756072      1.30596442      0.00000534
O       1.49916714      0.78726255      0.00000194
C       1.25534895     -0.63424601     -0.00000489
C       0.15276312     -0.80355169     -1.06489278
C       0.15276463     -0.80356209      1.06488295
H      -2.52761603      0.63762689      0.88220152
H      -2.52761728      0.63763688     -0.88219248
H      -2.62859378     -0.88692443     -0.00000403
H      -0.01985749      1.91723445      0.89083487
H      -0.01985870      1.91724293     -0.89081816
H       2.19908993     -1.17000954     -0.00000822
H      -0.19931154     -1.82875467     -1.16688116
H       0.32654028     -0.34842217     -2.04009667
H      -0.19930970     -1.82876612      1.16686189
H       0.32654342     -0.34844214      2.04009101
