16
b3lypvtz=-181125.35402684
C       2.00818769      0.98744429     -0.19435503
C       0.85020024      0.35694131     -0.06262873
C       0.40681889     -0.68892317      0.96127154
C      -1.01541514     -0.91487395      0.39365434
C      -1.51646604      0.52869182      0.15317659
C      -0.39220156      0.46039351     -0.91764434
N      -0.80996162     -0.97917033     -1.09288916
H       2.16843668      1.71098333     -0.98429745
H       2.83699559      0.80811284      0.47927072
H       0.41468420     -0.31363168      1.98664207
H       1.00949480     -1.59885469      0.92951839
H      -1.63501793     -1.68218536      0.85098414
H      -1.41904615      1.25520977      0.95765538
H      -2.50348111      0.55176507     -0.30077425
H      -0.36911855      1.10056094     -1.79549959
H      -0.03410999     -1.58216369     -1.36428461
