16
b3lypvtz=-204450.94660084
C       2.07002186      0.85837515     -0.87313069
C       2.13965652     -0.02576789      0.11443263
C       1.05125593     -0.98532644      0.54330308
C      -0.24602226     -0.94049280     -0.21276656
C      -1.20803110     -0.03957184      0.03595835
N      -1.13156327      0.97926146      0.97203439
O      -2.43154086     -0.02753014     -0.57755211
H       2.90425932      1.50680719     -1.10664366
H       1.18089930      0.95000559     -1.48475917
H       3.05550540     -0.08886643      0.69742946
H       1.46327081     -1.99875783      0.49509320
H       0.86603268     -0.81646057      1.61240941
H      -0.41688845     -1.66758117     -0.99597352
H      -1.87132787      1.65805086      0.88346324
H      -0.22132142      1.40445941      1.05396135
H      -2.53100959     -0.84341656     -1.07838941
