16
b3lypvtz=-202060.28395523
C       2.41454232     -0.92359704     -0.24864882
C       1.33579882     -0.17539516      0.04279992
N       1.44237698      1.23402542      0.20651877
C      -0.00043392     -0.73759420      0.18122123
C      -1.19021149     -0.10946236      0.00140492
N      -1.37467205      1.25019495     -0.21754818
N      -2.40145866     -0.80662351     -0.00028322
H       3.40831841     -0.49658261     -0.27770087
H       2.31548968     -1.97274561     -0.48353107
H       2.39857390      1.55208469      0.12547991
H       1.05706861      1.54343509      1.09107906
H      -0.03964053     -1.79803547      0.39109252
H      -0.51375772      1.73083360     -0.44731334
H      -2.11852129      1.44347574     -0.87303746
H      -2.31686926     -1.76831818      0.28964691
H      -3.13631780     -0.33377735      0.50841873
