15
b3lypvtz=-191180.02408242
C      -1.37913539      0.08385455      0.56200189
C      -0.71294745     -1.28929793      0.23583151
C      -0.06975489     -0.64691725     -1.00407366
C      -0.70943039      0.67079980     -0.69117806
N       0.74774931      0.52882255     -0.69895685
C       1.52865227      0.62750343      0.48247381
N       2.66616128      1.17200797      0.51935873
H      -2.46184615      0.04439897      0.45822786
H      -1.14050478      0.55634989      1.51452425
H      -0.03696086     -1.71987954      0.97414491
H      -1.44926455     -2.04264106     -0.03779586
H       0.10843432     -1.12764641     -1.95611291
H      -1.12775069      1.41797406     -1.35144485
H       1.12840785      0.21265476      1.40781963
H       2.90819014      1.51201621     -0.41482042
