19
b3lypvtz=-192729.33511528
C       3.35649821      0.04827503      0.35263949
N       2.00472180     -0.22039044      0.80087095
C       1.11696332     -0.44265882     -0.06687785
C      -0.30276812     -0.77590971      0.29927765
N      -1.26231589     -0.01814579     -0.49580739
C      -1.26197209      1.39665364     -0.15230553
C      -2.59979799     -0.58301638     -0.41951310
H       4.02975134     -0.69762842      0.77967530
H       3.67572955      1.01808878      0.73896076
H       3.46967788      0.04407261     -0.73939862
H       1.32791368     -0.41950361     -1.14659505
H      -0.43193948     -0.64011846      1.38457520
H      -0.46055320     -1.83772353      0.08241654
H      -1.58764917      1.58364641      0.88554767
H      -0.26169467      1.81306863     -0.26773523
H      -1.93298411      1.93602190     -0.82152860
H      -3.26865997     -0.03346510     -1.08314582
H      -3.02771367     -0.54681372      0.59744175
H      -2.58320741     -1.62445300     -0.74277322
