16
b3lypvtz=-181135.5154258
C       2.60994461     -0.06181026     -0.07367191
C       1.50905352     -0.81156478     -0.08353634
C       0.12576491     -0.32070912      0.06472056
C      -0.05375068      1.12040225      0.39765806
C      -0.78352339      1.98679723     -0.29564511
N      -0.79713627     -1.19528354     -0.07740048
C      -2.20168304     -0.88924472      0.07756141
H       2.57703047      1.01360798      0.04209644
H       3.58810136     -0.50743977     -0.19364702
H       1.57349785     -1.88438300     -0.22209454
H       0.49894101      1.47039530      1.26409969
H      -0.85146034      3.02610753     -0.00156040
H      -1.32232409      1.69643195     -1.18840524
H      -2.42360655      0.07109903      0.55076654
H      -2.66280657     -1.69264208      0.65550081
H      -2.68002980     -0.90551001     -0.90631248
