16
b3lypvtz=-227736.75720145
C      -0.71711829     -0.83527351     -0.99205739
C      -0.07112411      0.14095350      0.01046398
C      -1.27685898     -0.23250297      0.91085067
O      -1.66191539     -1.28956408      0.00556402
C       1.26637715     -0.34566515      0.55786959
O       2.28161969     -0.28702160     -0.42483834
N       0.11620676      1.49620852     -0.48265988
H      -1.22078392     -0.34236253     -1.83081906
H      -0.08503672     -1.63961993     -1.36903282
H      -2.04098007      0.54997486      0.97535121
H      -1.05643494     -0.60942380      1.91347594
H       1.18247291     -1.38392383      0.88095061
H       1.53171111      0.25626155      1.44132891
H       2.14443632      0.54585302     -0.89672615
H       0.30843907      2.14187237      0.27568712
H      -0.70101061      1.83423360     -0.97540839
