14
b3lypvtz=-227012.30868979
C       2.03522584     -0.27966047      0.13804147
O       0.65598471     -0.56758101      0.31693049
C      -0.24498787      0.32637760     -0.18406859
C       0.02796888      1.45653458     -0.83285773
C      -1.67648773     -0.08718285      0.06801889
O      -2.61707167      0.58822976     -0.30729914
N      -1.81718096     -1.25841565      0.73853506
H       2.28773473     -0.22358729     -0.92381756
H       2.30307671      0.66278375      0.62232083
H       2.58169200     -1.09695066      0.60100506
H       1.03031879      1.79614378     -1.03823609
H      -0.80393349      2.05618650     -1.16602542
H      -2.74608637     -1.58581695      0.93579090
H      -1.01625357     -1.78706107      1.03166184
