15
b3lypvtz=-214480.11479063
C      -3.25794575      0.32028161     -0.05633130
N      -2.21453821     -0.40330797      0.02520234
N      -1.00697338      0.19406088      0.19209816
C       0.14051711     -0.58259090     -0.24955406
C       1.38727566     -0.11660671      0.45908046
C       2.29820832      0.86572658     -0.13868019
O       2.62522720     -0.52638126     -0.12268701
H      -3.23399594      1.41325330     -0.03987642
H      -4.21524292     -0.17637237     -0.13345023
H      -0.97532624      1.17835808     -0.06418892
H       0.30247612     -0.53667213     -1.33429965
H      -0.06629266     -1.62170893      0.00609304
H       1.35236012     -0.18650793      1.54298546
H       2.07484782      1.27380469     -1.12028109
H       2.91063874      1.49324807      0.50047441
