14
b3lypvtz=-201258.40698056
C       0.92516028      0.02648193      0.93996171
C       0.28392124     -1.04734334      0.04954156
C       0.65499846     -0.08911788     -1.10330617
N       0.33145086      1.01441446     -0.07780418
C      -1.08505052      0.71006591      0.10769273
N      -1.99328907      1.57991701      0.08925961
N      -1.13879885     -0.70437124      0.29269527
H       0.55516346      0.13677173      1.95704849
H       2.00965996      0.07561851      0.89907719
H       0.50073198     -2.11269854      0.09243712
H       1.71044543     -0.04660274     -1.36193728
H       0.03196227     -0.07751078     -1.99710702
H      -2.90672826      1.15393967      0.24195849
H      -1.81502723     -1.18156469     -0.28901749
