19
b3lypvtz=-171838.8118549
C       1.82249403      0.26069281      1.04198468
C       1.02231053     -0.10735891      0.04009870
C       1.34766010     -1.29904743     -0.82659211
C      -0.22809947      0.64001377     -0.26856896
C      -0.22300250      1.96923078     -0.38516131
C      -1.50022244     -0.15864131     -0.45557441
C      -1.95313117     -0.88998051      0.81512189
H       2.74505141     -0.26758667      1.24863865
H       1.57345952      1.09135697      1.68823292
H       1.35779116     -1.02419898     -1.88448711
H       0.60622737     -2.09365628     -0.71353714
H       2.32187177     -1.71242518     -0.56910404
H      -1.13144822      2.51792914     -0.60140548
H       0.68767969      2.54375788     -0.28246137
H      -2.29081126      0.51434866     -0.79126476
H      -1.35912289     -0.89009850     -1.25683618
H      -2.86312885     -1.46250016      0.62868432
H      -2.15839850     -0.17996608      1.61765522
H      -1.18930727     -1.58079499      1.17511849
