15
b3lypvtz=-191224.87434943
C       1.85016890     -0.21846254      0.31886288
C       0.59275425      0.11533386     -0.49064201
C       0.04909195      1.50845304     -0.28493984
N      -1.16939372      1.61626991      0.05775665
C      -1.75335280      0.27493884      0.16081056
C      -0.62810027     -0.71623245     -0.11839028
N      -0.61800475     -1.97824705     -0.05376890
H       2.69380097      0.39646411      0.00233404
H       2.10959284     -1.26662150      0.17806253
H       1.68509156     -0.05064793      1.38403795
H       0.81626009     -0.03728356     -1.55323841
H       0.66161566      2.39768838     -0.41593886
H      -2.56875811      0.17280535     -0.56151145
H      -2.19139194      0.13189745      1.15204363
H      -1.52927462     -2.34605591      0.22442152
