13
b3lypvtz=-213765.42832462
C      -0.05164639      1.97238883     -0.33441232
C      -0.23957807      0.67503948     -0.07552060
C      -1.61966209      0.17547509      0.14123613
N      -2.03256328     -1.00707935      0.33249492
C       0.93705172     -0.23959795      0.01060997
N       2.03916045     -0.03381526      0.59712170
O       0.73468196     -1.41546376     -0.63522452
H      -0.89093110      2.65423200     -0.37876074
H       0.93010426      2.38341386     -0.52502180
H      -2.36619583      0.97347268      0.14034586
H      -1.26755092     -1.68036904      0.29367662
H       2.05372092      0.86408341      1.06914801
H       1.54216437     -1.93612802     -0.50776323
