13
b3lypvtz=-216144.48340038
C       2.90148050     -0.14461765      0.05827836
C       1.45316064     -0.03962508     -0.02088742
C       0.24971635      0.02521788     -0.08238915
C      -1.15165763      0.17628223     -0.17220396
C      -2.04160585     -0.80651542      0.02691837
O      -3.38410989     -0.63167576     -0.06661651
O      -1.67092156      1.43087958     -0.49058826
H       3.37493523      0.15616931     -0.87900199
H       3.19878727     -1.17504284      0.26311794
H       3.30552818      0.48180455      0.85672173
H      -1.74377466     -1.81128699      0.27714676
H      -3.55049853      0.29327554     -0.29314145
H      -0.94104004      2.04513465     -0.60735936
