16
b3lypvtz=-204437.518124
C      -2.93581622      0.33607354     -0.24232797
N      -1.49896615      0.15559011     -0.30238764
C      -0.98797885     -0.73236726      0.42483187
O       0.32735179     -1.02776267      0.46716910
C       1.18233551     -0.26141527     -0.36352586
C       2.63548880     -0.40123773     -0.07465524
C       1.91175319      0.89174513      0.24571255
H      -3.36496943      0.18626365     -1.23516172
H      -3.43903589     -0.34431634      0.45798957
H      -3.16311257      1.36263294      0.05193228
H      -1.53444263     -1.38847211      1.10753458
H       0.82950407     -0.18005605     -1.38128950
H       3.32241147     -0.42679495     -0.90885928
H       2.90831052     -1.03210834      0.75950791
H       2.09099267      1.76357622     -0.36768346
H       1.71617376      1.09864912      1.28823255
