13
b3lypvtz=-237034.32778964
C       0.66631630     -0.81458922     -1.22957535
C       0.33187261      0.25324159     -0.23604236
C       0.91856860      1.46907732     -0.21282534
O       0.63706353      2.44277187      0.66675908
N      -0.62895293      0.07247836      0.76201853
N      -1.19231908     -1.02277900      0.78186036
O      -2.11756516     -1.03759360      1.83352653
H       1.43852757     -0.46820917     -1.91564455
H      -0.21189754     -1.10137202     -1.81224177
H       1.02423193     -1.71882896     -0.73227739
H       1.68137316      1.75183448     -0.92508071
H      -0.05253014      2.09662129      1.25898232
H      -2.49468887     -1.92265298      1.76054063
