13
b3lypvtz=-237086.3383037
C      -1.43546870     -1.33269077      0.90299006
N      -1.36112727     -0.22609911     -0.02654579
C      -0.31151766      0.42852569     -0.22708399
N      -0.23933082      1.56996607     -0.98495099
O       0.89419097      0.10595773      0.45692763
C       2.12203112      0.27932762     -0.06657056
O       2.39859555      0.70770206     -1.15194002
H      -0.49343655     -1.57291340      1.40032602
H      -1.78428999     -2.22023186      0.37100345
H      -2.18441784     -1.10826376      1.66592499
H       0.61913936      1.69255298     -1.50228941
H      -1.08364052      1.72686988     -1.51269300
H       2.85937234     -0.05060312      0.67490163
