17
b3lypvtz=-194366.31040136
C      -2.78025334      0.12061086      0.04215503
C      -1.66502931     -0.56636195      0.26222593
C      -0.48488049     -0.61290348     -0.66595409
C       0.70842653      0.14436185     -0.10501633
O       0.48712804      1.52727212      0.03634659
C       2.09567446     -0.20658741     -0.52028828
C       1.62790819     -0.51420542      0.89085917
H      -2.92606480      0.68508942     -0.87161245
H      -3.59154536      0.13237352      0.75841396
H      -1.56123997     -1.11909372      1.19210213
H      -0.19174450     -1.65185637     -0.84094013
H      -0.75040134     -0.17684846     -1.63213628
H      -0.28207447      1.64590941      0.60665863
H       2.78357233      0.61753677     -0.64416223
H       2.23739982     -1.02906132     -1.20814403
H       1.45707153     -1.54784973      1.16183998
H       2.01516466      0.10968591      1.68374742
