18
b3lypvtz=-202797.10736788
C       1.41160897     -0.49982943     -1.40251833
C       0.50338319     -0.25564105     -0.22548615
N       0.88204810     -0.92323326      1.00325650
C      -0.19177330      1.08912678     -0.06930518
N      -0.37482705      1.58455157      1.27302742
C      -0.99186376     -0.14472299     -0.45821086
N      -1.88847916     -0.68433166      0.53704134
H       1.04051674      0.00314835     -2.29657519
H       2.42070101     -0.12598080     -1.20387484
H       1.48268748     -1.56735760     -1.63049442
H       1.81494635     -1.30467167      0.92799414
H       0.87351331     -0.24069104      1.75923675
H      -0.01037732      1.83305127     -0.83772131
H      -1.31257356      1.35881649      1.59390874
H      -0.23531902      2.58233421      1.32324078
H      -1.34613444     -0.19740006     -1.48063747
H      -1.39100533     -1.38359937      1.08347351
H      -2.68715222     -1.12366975      0.10354457
