10
b3lypvtz=-202149.4032837
C       2.47171602     -0.56097197     -0.05630037
C       1.27470132     -0.66688589     -0.14049932
C      -0.13090288     -0.73963740     -0.23650986
C      -0.88862209      0.37772994     -0.23444472
C      -2.31412088      0.30813091     -0.33090163
N      -3.46100018      0.23557393     -0.40909476
O      -0.41661433      1.63909765     -0.14507059
H       3.52881764     -0.49084865      0.01715619
H      -0.61402296     -1.70295812     -0.31299178
H       0.55004832      1.60076958     -0.08399282
