13
b3lypvtz=-213707.20237315
C       2.54740398     -1.38639200      0.30937637
C       1.40375846     -1.05012392      0.15568264
C       0.08465154     -0.55977537     -0.06951798
N      -0.88048533     -1.30894354      0.32821868
O      -2.12398588     -0.71483849      0.06721695
C      -0.09245242      0.80991288     -0.71573733
N      -0.51507830      1.86965455      0.19951286
H       3.54976383     -1.70457546      0.45364867
H      -2.74188521     -1.38159894      0.38391475
H      -0.83890472      0.72104442     -1.50509135
H       0.84823326      1.10086287     -1.17976989
H       0.15878128      1.98329729      0.94769046
H      -1.39980051      1.62147572      0.62485517
