16
b3lypvtz=-204442.26082805
N       0.70739307     -1.27677526     -0.71903053
C       0.55790591     -0.19067080     -0.08030561
C       1.71123165      0.68229647      0.39222345
O       2.98395430      0.23267837     -0.03108186
C      -0.79349445      0.31743358      0.27018708
C      -1.88668900     -0.67123762      0.62589640
C      -1.95164189      0.05586394     -0.67296978
H       1.70156536     -1.47618843     -0.83771160
H       1.72847306      0.68018469      1.48532246
H       1.52508718      1.71850305      0.08365645
H       3.08455894      0.42905905     -0.96792527
H      -0.80757649      1.26177775      0.79966492
H      -1.59919756     -1.71245268      0.59790016
H      -2.57240997     -0.39260200      1.41390150
H      -2.68271865      0.84301944     -0.79391864
H      -1.70634147     -0.50108955     -1.56580914
