16
b3lypvtz=-202039.0992103
C       2.68731103     -0.75124428      0.19214602
C       1.59071751      0.00009850     -0.01192493
N       1.57483398      1.38098759     -0.12353802
N       0.34330293     -0.59239163     -0.22166866
N      -0.79229273      0.11544331     -0.03976742
C      -1.91210259     -0.49427440     -0.02800124
C      -3.19648782      0.24884621      0.13254558
H       2.62288105     -1.82760642      0.23830213
H       3.66256345     -0.29685318      0.26581157
H       2.33573917      1.83948896      0.34842269
H       0.67249897      1.78897280      0.06943864
H       0.30543083     -1.60215718     -0.16162417
H      -1.95857112     -1.58262137     -0.14409456
H      -3.00456166      1.31518097      0.23962026
H      -3.74671256     -0.09879567      1.01146275
H      -3.85087644      0.09619478     -0.73067763
