15
b3lypvtz=-214480.66251855
C       1.06593125      1.56676844     -0.06768241
C       0.40784626      0.25091356      0.21817149
N       0.97708586     -0.88755730      0.27106883
O       2.36288437     -0.82157204      0.02587726
C      -1.06542200      0.26509598      0.45799270
C      -1.94848397     -0.85824031      0.09044942
N      -1.91131751      0.35124899     -0.75049253
H       2.13466551      1.46095610     -0.22080003
H       0.89072339      2.26116392      0.75820370
H       0.61348490      2.00716467     -0.95873433
H       2.62291644     -1.74486242      0.09658085
H      -1.36725122      0.87254331      1.30720846
H      -1.51511482     -1.73889475     -0.36120351
H      -2.82296793     -1.03614484      0.70478034
H      -2.72117154      0.93495672     -0.56902924
