13
b3lypvtz=-237019.3339465
C      -2.05718030      0.61511627     -0.48072433
C      -0.65954172      0.54155243      0.04074747
O      -0.31853317      1.40802145      1.04792136
C       0.24095881     -0.31794601     -0.43119670
O       1.52432491     -0.35423191      0.07880790
N       2.28156212     -1.32833614     -0.56808854
N       3.41232270     -1.34035855     -0.09909109
H      -2.78195364      0.41589162      0.31525156
H      -2.22186254     -0.11089605     -1.27460084
H      -2.27187049      1.61048097     -0.88291475
H      -1.07880029      1.95367440      1.26721115
H       0.02744710     -1.01987526     -1.22036913
H       3.90312652     -2.07319322     -0.61935406
