15
b3lypvtz=-214525.7892976
C       2.94744254     -0.51906516     -0.00000674
C       1.75191856      0.40860129      0.00002201
O       0.56575878     -0.39814298     -0.00001810
C      -0.63692593      0.22523012     -0.00006113
N      -0.90150955      1.46269994     -0.00006511
C      -1.74087517     -0.79096276     -0.00005706
N      -2.97151391     -0.51042615      0.00010316
H       2.94271737     -1.15561024     -0.88445183
H       2.94270457     -1.15568450      0.88438474
H       3.86893153      0.06440345      0.00002429
H       1.74936100      1.04979710     -0.88637564
H       1.74934683      1.04972831      0.88646952
H      -0.08498988      2.06517089     -0.00001883
H      -1.41885083     -1.83118042      0.00012630
H      -3.08096390      0.50924211      0.00005242
