10
b3lypvtz=-223072.91599724
N       3.58849562     -0.40519189     -0.00000793
C       2.50558353     -0.01003504     -0.00000848
C       1.19805852      0.55435625     -0.00001502
N       0.17445053     -0.21551411      0.00024059
N      -1.03951795      0.34048011      0.00018467
C      -2.17129832     -0.45728774      0.00031848
O      -3.28416793     -0.00091394     -0.00023958
H       1.13044748      1.64265570     -0.00024612
H      -1.16959588      1.35011824      0.00001633
H      -1.91501059     -1.52598458     -0.00021793
