13
b3lypvtz=-239471.17360768
O       3.48428080      0.35033104     -0.36907128
C       2.39863528      0.63775616      0.07768214
C       1.16271916     -0.10611878     -0.20481527
C       0.00062458      0.28029609      0.32091719
C      -1.33170635     -0.37151651      0.09040887
O      -1.17521597     -1.43362470     -0.81443411
O      -2.28853857      0.57248714     -0.35400340
H       2.27277709      1.51233937      0.75045872
H       1.23601341     -0.97112907     -0.85061961
H      -0.03944159      1.15059613      0.96885243
H      -1.73627794     -0.72536809      1.04565568
H      -2.02929478     -1.86721827     -0.91295614
H      -1.95457513      0.97116951     -1.16757520
