11
b3lypvtz=-236321.42961269
C       2.29452557      0.93890346      0.44891168
N       1.67035455     -0.00775792      1.00423645
C       0.48834603     -0.50571846      0.50594358
N      -0.53867187      0.23111561      0.32881267
C      -1.71579668     -0.44609287     -0.02369772
O      -2.02906056     -1.57263659      0.28071304
O      -2.50627268      0.37068892     -0.74864176
H       1.97847802      1.37737914     -0.49972444
H       3.18596458      1.33640875      0.92569656
H       0.47645462     -1.58618298      0.35171572
H      -3.30432159     -0.13610703     -0.95333180
