16
b3lypvtz=-227759.41221363
C       0.18724240      0.96200356     -1.24659930
C       0.09493478      0.23586364      0.08798883
O      -0.38543783      1.09305170      1.13222387
C       1.44709462     -0.32776479      0.51278835
O       2.31367889     -0.68748491     -0.24135241
C      -0.90079903     -0.95991189      0.05534042
N      -2.29345145     -0.61989045     -0.17767037
H       0.83698528      1.83668350     -1.16825549
H       0.61370595      0.30900648     -2.00669570
H      -0.79865297      1.29786878     -1.56627041
H       0.05057344      1.94822844      1.06234764
H       1.56309304     -0.40403853      1.61413751
H      -0.83633869     -1.47088053      1.01861449
H      -0.56732538     -1.66467304     -0.70748288
H      -2.43508100     -0.25125704     -1.10954159
H      -2.59089806      0.09096407      0.47998203
