11
b3lypvtz=-210611.37574291
N      -2.63823262     -0.52105582     -0.03786083
C      -1.57259967     -0.08440734     -0.01648657
C      -0.25842273      0.52867802      0.00747935
N      -0.08539282      1.78670078      0.04519079
C       0.91823516     -0.41161266      0.00248146
N       0.81545896     -1.68425944      0.05106139
N       2.11440079      0.22432851     -0.06859837
H      -0.96209440      2.30537794      0.05645411
H      -0.15329587     -1.98894708      0.06742189
H       2.94559858     -0.32210007      0.06962739
H       2.14260564      1.22003914      0.06278340
