16
b3lypvtz=-204446.43951404
O       2.54522810     -1.15442070      0.37780896
C       1.86449868      0.08491191      0.49901482
C       0.41521837      0.03268623      0.13353166
C      -0.31453694     -1.03564426     -0.16876731
C      -1.73554322     -0.65977456     -0.47153544
N      -1.69338491      0.81306979     -0.52021057
C      -0.43151421      1.27938509      0.07585750
H       2.49421278     -1.43278005     -0.54238636
H       1.97384414      0.38120913      1.54667575
H       2.36099527      0.86731017     -0.09267101
H       0.04247912     -2.05527132     -0.17619406
H      -2.41538503     -1.04764007      0.30276079
H      -2.08175908     -1.07491589     -1.42508451
H      -2.49956527      1.23267786     -0.08309634
H      -0.55634917      1.70796798      1.08294760
H       0.03166138      2.06122868     -0.53865149
