13
b3lypvtz=-213775.14549708
C      -2.34705058     -0.59811534     -0.00000927
N      -1.00924738     -0.05482614      0.00000856
C      -0.62575690      1.23994065      0.00001589
C       0.75297001      1.26736246     -0.00001488
C       1.10971479     -0.09405091      0.00000476
O       2.37125228     -0.57971576     -0.00000652
N       0.05667686     -0.89544889      0.00000213
H      -2.50730844     -1.21237787      0.88646038
H      -2.50729048     -1.21236856     -0.88648884
H      -3.05943178      0.22397085     -0.00001239
H      -1.34692849      2.03983147     -0.00000783
H       1.40191484      2.12382379     -0.00001500
H       2.31011626     -1.54292974      0.00000302
