9
b3lypvtz=-209801.32236372
C       2.65873480     -0.08814683     -0.68327910
C       1.47317713     -0.06405685     -0.50733294
C       0.07611185     -0.04373093     -0.28159514
N      -0.81475364      0.42753004     -1.15340137
N      -1.94034572      0.22904338     -0.49486729
N      -1.79761013     -0.32355341      0.70052222
N      -0.52097535     -0.50569383      0.85698186
H       3.70862034     -0.10913496     -0.83955636
H      -2.84295927      0.47774338     -0.86975935
