18
b3lypvtz=-205211.24401966
C      -2.84236252     -0.73083170      0.18702146
C      -1.42382590     -0.77646981     -0.37913765
C      -0.46555902      0.28091762      0.21372762
N      -0.89188338      1.67727654      0.01388449
C       0.92457993      0.09982001     -0.33017702
C       1.98288398     -0.17990024      0.42161624
O       3.26595388     -0.36432302     -0.00185272
H      -3.46061295     -1.52212407     -0.23961634
H      -3.33749814      0.21750021     -0.03142525
H      -2.83930035     -0.86399877      1.27189199
H      -1.45569228     -0.64623853     -1.46696464
H      -0.99370877     -1.76583702     -0.20067730
H      -0.42668844      0.12510105      1.29720815
H      -0.93148918      1.89287300     -0.97730059
H      -1.82544969      1.82206720      0.38095951
H       1.04711026      0.20762891     -1.40699429
H       1.91603156     -0.29308082      1.49659056
H       3.30605200     -0.24221056     -0.95743421
