17
b3lypvtz=-215284.33433974
C       3.43586652     -0.50046945     -0.12651590
N       2.29276520      0.40155105     -0.14280355
C       1.03011070     -0.25393073      0.16843185
C      -0.12865269      0.73643404      0.07119548
N      -1.37899004      0.11001618      0.46225797
C      -2.32915316      0.10120215     -0.35915543
O      -3.52563718     -0.45938749     -0.08880197
H       4.35125633      0.06400906     -0.30609619
H       3.33557714     -1.23129155     -0.93168870
H       3.55461051     -1.05936917      0.81528953
H       2.45043210      1.15833897      0.51238675
H       1.01436007     -0.72510815      1.16394429
H       0.87471152     -1.05653665     -0.55821698
H      -0.15954443      1.15519570     -0.94284713
H       0.06220835      1.56746699      0.75890257
H      -2.31730700      0.53115204     -1.36280334
H      -3.47030293     -0.81773198      0.80968972
