18
b3lypvtz=-181890.48707759
C      -2.32276903      0.61657455     -0.45428714
C      -1.65420972     -0.47299800     -0.07446026
N      -0.31250518     -0.75345660     -0.33179764
C       0.58016909     -1.28660393      0.68245399
C       0.83553452      0.06029378      0.08082490
C       1.91424244      0.20479057     -0.97009239
C       0.62353747      1.28161458      0.94797407
H      -3.38343382      0.69272259     -0.26735869
H      -1.84358878      1.43823173     -0.96863854
H      -2.17945928     -1.28923290      0.41270243
H       0.22434307     -1.31279789      1.70817379
H       1.17964603     -2.14046973      0.38573090
H       1.69053475      1.03778760     -1.64038244
H       2.88296944      0.39979093     -0.50432364
H       1.99089096     -0.70075984     -1.57027466
H      -0.15504934      1.12495909      1.69174740
H       1.55234826      1.52881330      1.46601477
H       0.33935010      2.14729917      0.34600813
