10
b3lypvtz=-251372.86270432
F      -2.30239263     -0.26400422     -0.58948211
C      -1.58864855      0.48484524      0.33574824
C      -0.12496575      0.26984128      0.14994864
N       0.76205898      1.13365895     -0.23311064
C       1.91213877      0.38454085     -0.21365698
N       1.75974173     -0.85378789      0.15128458
O       0.38354605     -0.94107795      0.40584712
H      -1.80719329      1.54019078      0.18459207
H      -1.89875127      0.17253142      1.33429403
H       2.88150197      0.77343054     -0.48018795
