11
b3lypvtz=-236261.10851376
N      -3.10201293      0.09508616     -0.00000316
N      -1.93082748      0.41651781     -0.00003925
O      -1.15042657     -0.78362853     -0.00002705
C       0.18453126     -0.56231334     -0.00003803
C       0.85614747      0.59530270     -0.00004825
C       2.32387726      0.57055184     -0.00002638
O       3.01344702     -0.42755205      0.00007902
H      -3.62564179      0.97743832     -0.00001169
H       0.71185604     -1.50766805     -0.00003471
H       0.35845953      1.55245735     -0.00006485
H       2.79677319      1.57243978      0.00009834
