16
b3lypvtz=-202024.49647498
N      -3.31833004     -0.14363520     -0.19521156
N      -2.11038985     -0.37727156      0.01844225
C      -1.30425358      0.77144904     -0.03409742
C       0.01216876      0.70368668      0.19326641
C       0.79668783     -0.52716563      0.51548921
C       2.05645525     -0.67123418     -0.35055811
N       2.98723652      0.43604871     -0.11341417
H      -3.80686015     -1.04726369     -0.13707706
H      -1.80704825      1.70610902     -0.26714944
H       0.58535491      1.62110276      0.13117633
H       1.11262530     -0.47669178      1.56554897
H       0.17112595     -1.41265816      0.41754813
H       2.49283567     -1.66100440     -0.16072973
H       1.77122639     -0.64881780     -1.40441522
H       3.73052126      0.43558964     -0.80065974
H       3.42857302      0.34024054      0.79418618
