14
b3lypvtz=-201264.11107306
C       2.68457668     -0.94896543     -0.63115295
N       1.99811589     -0.45505722      0.31850880
C       0.63219743     -0.26972437      0.12124435
C      -0.13589483      0.17175743      1.13777786
C      -1.56901500      0.39624749      1.18442396
N      -2.42404790      0.60350914      0.24315689
N      -2.02088313      0.61068674     -1.05409858
H       3.75114390     -1.09806162     -0.49387329
H       2.25387282     -1.24015551     -1.59617580
H       0.21836602     -0.54924732     -0.84645841
H       0.38613963      0.34073720      2.07382858
H      -2.00624327      0.42029596      2.17668191
H      -1.06947891      0.92479498     -1.22865433
H      -2.69874934      1.09338253     -1.62390899
