20
b3lypvtz=-182668.1040591
C      -2.56050944     -0.54988081      0.29431523
C      -1.57194224      0.02725714     -0.37329786
C      -0.26910020      0.49977924      0.21549129
N      -0.19430120      1.95615278      0.00768526
C       0.94031238     -0.30719502     -0.34051584
C       0.80966679     -1.80569743     -0.04689334
C       2.27277741      0.21909940      0.20324600
H      -2.49417585     -0.73477743      1.36014450
H      -3.47545552     -0.85521410     -0.19659563
H      -1.68469797      0.19922096     -1.44224146
H      -0.30489998      0.33945502      1.29824553
H      -0.11299051      2.16865200     -0.98137501
H       0.62394677      2.34413514      0.45972548
H       0.94058402     -0.16987911     -1.42945365
H      -0.09775119     -2.22794665     -0.47585739
H       0.78146781     -1.98735354      1.03122627
H       1.66257552     -2.35455935     -0.45007630
H       2.30644706      0.14159122      1.29381827
H       3.10646224     -0.36368236     -0.19188830
H       2.44944009      1.26048492     -0.06687606
