12
b3lypvtz=-179605.02561717
C      -2.82664560      0.84583592      0.39327225
C      -1.91838558      0.14025098      0.05598266
C      -0.79768571     -0.70177314     -0.35720562
C       0.49701614      0.06091786     -0.42548896
C       1.60730928     -0.30662057      0.21501260
C       2.83068735      0.41668396      0.12354579
N       3.83348521      0.98300767      0.06461852
H      -3.63432179      1.46516026      0.69482595
H      -0.69939998     -1.55221044      0.32149954
H      -1.01682545     -1.11614926     -1.34836872
H       0.50018618      0.95417388     -1.03856289
H       1.62457996     -1.18927712      0.84408004
