16
b3lypvtz=-204435.71860253
C       0.61708784     -1.67504022     -0.17674982
C       0.21223415     -0.21680173     -0.05622852
C      -0.62918755      0.21034963      1.12449793
C      -1.24475396      0.11512476     -0.24596500
O      -1.55412169      1.28487260     -0.94839500
C       1.22916744      0.72765431     -0.62380533
N       1.80285003      1.71135045     -0.07511185
H       1.49735668     -1.88842065      0.43290742
H       0.85452562     -1.92966993     -1.21219921
H      -0.18673715     -2.33439874      0.15322226
H      -0.48297242      1.21147914      1.50949500
H      -0.88242470     -0.52991682      1.87170704
H      -1.90770231     -0.72162842     -0.45033171
H      -2.31712639      1.70124579     -0.53506039
H       1.51988415      0.49562704     -1.65195844
H       1.47182027      1.83827277      0.88407563
