14
b3lypvtz=-226983.70924898
N      -2.80532319      0.18913557     -0.59392823
C      -2.17067891     -0.48945549      0.25990969
C      -0.71069365     -0.38069903      0.61040832
O      -0.10214799      0.61981587     -0.18543214
C       1.17942903      1.00999481      0.21256972
C       2.28494256      0.00534843     -0.03560138
O       2.13070486     -1.10729157     -0.46120531
H      -2.17518328      0.85815889     -1.04277650
H      -2.70809755     -1.25485679      0.82544794
H      -0.62144109     -0.13231915      1.67891026
H      -0.22789892     -1.35170694      0.45843710
H       1.21861170      1.28169613      1.28126077
H       1.43252615      1.91859381     -0.34367894
H       3.29548428      0.39214647      0.22330670
