16
b3lypvtz=-204427.57138975
C      -2.12976647      0.29692549     -0.63615991
C      -1.19886603      1.00540502     -0.00802856
C      -0.24575975      0.47662642      0.99802913
N      -0.22878939     -0.96565480      1.26115110
C       0.96173496     -0.35310105      0.66624817
C       1.30959333     -0.77695526     -0.73701509
O       2.14946983      0.17214001     -1.38847562
H      -2.79062090      0.75460920     -1.35995568
H      -2.25568089     -0.75800252     -0.43196187
H      -1.10250062      2.06815196     -0.21342286
H      -0.10404620      1.13437550      1.85165556
H      -0.09732962     -1.15601539      2.24751468
H       1.82498350     -0.19264802      1.30548560
H       1.87973410     -1.70691894     -0.70511549
H       0.39580836     -0.96728464     -1.30528509
H       1.63193580      0.96834701     -1.54466408
