17
b3lypvtz=-191985.88333262
C      -3.00475678     -0.44926526      0.21845649
C      -1.76655598     -0.71742204     -0.17852248
C      -0.63135509      0.24407935     -0.10640462
N      -0.71308851      1.52314560     -0.12365237
N       0.59766022     -0.36898575     -0.04826793
C       1.81528410      0.39584149      0.16964203
C       3.04331742     -0.48553356     -0.00690777
H      -3.27123694      0.51150694      0.64177819
H      -3.79302563     -1.18534977      0.14002636
H      -1.53364401     -1.70223687     -0.57228158
H      -1.67414248      1.81665419     -0.26805507
H       0.60710028     -1.32486891      0.26787953
H       1.81777882      1.21818781     -0.54505184
H       1.81151704      0.85799930      1.16361480
H       3.05053486     -1.31041383      0.71051692
H       3.95243340      0.09437306      0.15329414
H       3.08067429     -0.90898474     -1.01162780
