12
b3lypvtz=-200546.93195117
N      -2.29114621     -0.15881505      0.00035538
C      -1.01698238     -0.10272074     -0.00002868
N      -0.25379870     -1.26609682     -0.00021046
C       1.03842065     -1.18831703      0.00016367
C       1.79566464      0.02460193      0.00053862
C       1.07530299      1.17069093      0.00012846
N      -0.27869718      1.11325180     -0.00041860
H      -0.80642214      1.97119415     -0.00062631
H      -2.71447369      0.76677597      0.00053818
H       1.57245447     -2.13600513     -0.00003942
H       2.87327266      0.02772569      0.00092836
H       1.51484188      2.15878529      0.00009081
