18
b3lypvtz=-181904.96025103
C       0.39327664      2.52115414      0.01835795
C      -0.42226484      1.46260030      0.04239152
C      -0.03111644      0.05443466     -0.01967634
C      -0.92562057     -0.94735532     -0.04434805
C      -2.41974697     -0.86853532     -0.00347420
C       1.45803385     -0.23720028     -0.07331181
N       1.78379103     -1.66063275      0.01962717
H       1.46962059      2.43484298     -0.04532485
H      -0.00490227      3.52604314      0.06002724
H      -1.48582161      1.65821517      0.10307381
H      -0.52125238     -1.95000695     -0.12338634
H      -2.84781999     -1.31274669     -0.90733047
H      -2.81007474      0.14286185      0.08562106
H      -2.80896864     -1.45180425      0.83640233
H       1.95007169      0.36484948      0.70278846
H       1.84889849      0.12906195     -1.02787523
H       2.75836268     -1.80968340     -0.20776543
H       1.64723447     -1.99469675      0.96653719
