15
b3lypvtz=-237798.62803492
N       2.81406193      0.45827693      0.36079052
N       1.88953915      0.09328625      1.31092412
C       0.65208886      0.16280580      1.01874331
C       0.05300812      0.58688171     -0.29853877
O      -1.35077943      0.40929580     -0.34149732
C      -1.74675373     -0.93243923     -0.57736332
O      -3.13236602     -1.00567098     -0.57613615
H       3.70885761      0.05145912      0.58457837
H       2.55803368      0.28511551     -0.60667858
H      -0.04406986     -0.06139791      1.82058597
H       0.23457645      1.65332812     -0.46110178
H       0.52839548      0.05748313     -1.14043273
H      -1.29657441     -1.58803434      0.18230825
H      -1.41700400     -1.25407505     -1.57158530
H      -3.45101384     -0.74661487      0.29540341
