10
b3lypvtz=-228099.85738834
F      -2.23724287     -0.00000329     -0.00000161
C      -0.89495749     -0.00000182      0.00000251
C      -0.19164415      1.19120177      0.00000059
N       1.14006943      1.19092135      0.00000530
C       1.73722748      0.00000128      0.00002027
N       1.14007227     -1.19092005      0.00000564
C      -0.19164143     -1.19120367      0.00000094
H      -0.70865613      2.14412770     -0.00000477
H       2.82041290      0.00000263     -0.00000871
H      -0.70865101     -2.14413089     -0.00000415
