16
b3lypvtz=-204460.3381649
O       3.15298420     -0.27642703     -1.23959852
C       2.78270383     -0.46389438     -0.09920917
N       1.49235635     -0.55812841      0.30902600
C       0.34636303     -0.39761569     -0.57720052
C      -0.62836384      0.63434036     -0.06642692
C      -1.65422908      0.25882873      0.97386266
C      -2.07958039      0.54153970     -0.44284850
H       3.48969395     -0.58097952      0.74210189
H       1.32119709     -0.69271419      1.29202757
H      -0.16502964     -1.35781443     -0.70255249
H       0.74934381     -0.11429754     -1.54852091
H      -0.21563910      1.63311869      0.01002321
H      -1.90138918      0.98276941      1.73766664
H      -1.68559116     -0.77039570      1.30867782
H      -2.39075156     -0.29706753     -1.05158614
H      -2.61406831      1.45873753     -0.64544261
