18
b3lypvtz=-181895.30077807
C      -1.39118202     -1.30263268      0.65546032
C      -0.94619577     -0.18610232      0.08432429
C      -1.86933201      0.81459388     -0.55633962
C       0.51425620      0.17195075      0.05394860
N       0.77551328      1.42880292      0.73522024
C       1.56953989     -0.90881806      0.01826213
C       1.28510686     -0.07565282     -1.21251325
H      -2.44603470     -1.54642467      0.66722891
H      -0.72206425     -2.00825827      1.12914051
H      -1.62618176      0.94155101     -1.61507416
H      -1.75063729      1.79331606     -0.09006153
H      -2.91055280      0.50439457     -0.47650088
H       1.68635112      1.79701394      0.49221150
H       0.75621627      1.29565705      1.74031631
H       2.48753801     -0.71225837      0.55599572
H       1.27317041     -1.94773488     -0.00076153
H       0.77241375     -0.55425300     -2.03546129
H       2.01393479      0.66643391     -1.51418826
