8
b3lypvtz=-222290.50828839
C      -0.60150788      0.79405620      0.11669053
C       0.31667206     -0.19840042      0.26173932
O      -0.28029301     -1.26872954      0.79447192
N      -1.65859737     -0.88510658      0.98111035
N      -1.78852529      0.28972172      0.58254253
C       1.69570965     -0.25218855     -0.04558307
N       2.81763194     -0.26973214     -0.30514762
H      -0.50109008      1.79037932     -0.27125787
