12
b3lypvtz=-226253.43031462
C      -1.21262947     -1.63814279      0.19248845
C      -0.45204548     -0.32073775      0.26149100
C      -1.32250184      0.83421482      0.00805908
N      -2.02596173      1.72435352     -0.17804515
O       0.58758078     -0.33371849     -0.74762907
C       1.83551984      0.00207797     -0.35212597
O       2.17106105      0.30312229      0.75556320
H      -2.02303818     -1.63818869      0.92063880
H      -1.63300394     -1.78631930     -0.80060110
H      -0.53447908     -2.45906497      0.42031944
H       0.01840834     -0.18599305      1.23543801
H       2.49926472     -0.05487158     -1.22255069
