16
b3lypvtz=-202052.83757641
C       2.86311577     -0.62861976      0.12969798
N       1.69063445      0.21196749      0.01397737
C       0.54632354     -0.32279385      0.09296555
C      -0.69221326      0.49857676     -0.03903720
N      -0.45790564      1.85221341     -0.03150736
N      -1.88779533      0.05855780     -0.13835724
C      -2.23936647     -1.34037236     -0.09690209
H       3.46650286     -0.52485086     -0.77455169
H       3.47582264     -0.27199494      0.96012949
H       2.63115913     -1.68972214      0.28569116
H       0.42349855     -1.39652386      0.24396619
H      -1.21151337      2.42875036     -0.36444498
H       0.48445440      2.14048865     -0.23602871
H      -3.00842529     -1.48913153      0.66563373
H      -2.69380469     -1.62533627     -1.05029315
H      -1.43005428     -2.04902590      0.10748294
