15
b3lypvtz=-191227.49403833
C       2.54290647     -0.28302880      0.00759560
N       1.51027922      0.73533238      0.02139169
C       0.29928822      0.33853995     -0.01891384
C      -0.88044895      1.21905457     -0.01134955
C      -1.99303057      0.48723462      0.01942716
C      -1.65321741     -0.97720318      0.02864967
N      -0.20345759     -0.95895375     -0.09510991
H       2.44702507     -0.96712758     -0.84707814
H       3.52135778      0.19152989     -0.05191743
H       2.53492160     -0.89716721      0.91990876
H      -0.79064284      2.29314400     -0.02202833
H      -3.01006253      0.84879059      0.02732937
H      -2.12728905     -1.51250352     -0.80208743
H      -1.98669107     -1.46089503      0.95554048
H       0.34631565     -1.73931393      0.21722388
