13
b3lypvtz=-213766.36096058
O      -2.25912865      0.60084218      0.21507843
C      -0.92978110      0.29763966      0.07207194
C      -0.07292187      1.20868469     -0.38263756
N       1.28411162      0.86116190     -0.51634204
C       1.68818817     -0.39943198     -0.17714845
N       0.94939434     -1.33823355      0.26508441
C      -0.48040675     -1.09044922      0.44496299
H      -2.72340652     -0.17097319      0.55239312
H      -0.36242754      2.21034837     -0.65789594
H       1.94742751      1.53100444     -0.85670154
H       2.75105628     -0.58546519     -0.31007152
H      -1.04568431     -1.83069200     -0.14256551
H      -0.74662118     -1.29433611      1.49387166
