10
b3lypvtz=-220650.10081414
N       0.98465617      0.10153510      0.00337092
C       0.38701035      1.19901421      0.19350355
N      -0.98696856      1.34493660     -0.01273461
C      -1.53310460      2.27453697      0.67246513
N      -0.81074676      3.09354160      1.49861063
N       0.54686095      3.26130134      1.26012986
N       1.12158156      2.37790239      0.60276514
H       1.98166262      0.22468136      0.17902514
H      -2.59881450      2.47335762      0.60200192
H      -1.22593722      3.90249282      1.93206233
