18
b3lypvtz=-181879.01003599
C       2.52405267     -0.25433745      0.42177470
C       1.44556267      0.30194462     -0.51079859
C       0.06788159     -0.25076925     -0.21954136
C      -1.12399343      0.54402815     -0.68448029
C      -0.78185335      0.46309960      0.79572771
N      -2.04713564     -0.21390091      1.09509399
C      -2.41651326     -0.19788852     -0.35639663
H       2.30903895     -0.01102767      1.46381434
H       3.50647498      0.15318105      0.17785913
H       2.58770951     -1.34174290      0.34269539
H       1.71259283      0.08220459     -1.54918522
H       1.41927535      1.39322845     -0.43172353
H      -0.00401931     -1.33688853     -0.25599746
H      -1.02789012      1.38296773     -1.35822338
H      -0.38450520      1.22047168      1.45992832
H      -1.92731418     -1.14468202      1.48322059
H      -3.32148059      0.38849218     -0.52090291
H      -2.53788345     -1.17838078     -0.82690054
