17
b3lypvtz=-217685.20195857
C      -3.04866020     -0.30942558      0.00002484
C      -1.61999191     -0.76389639      0.00001022
C      -0.54570928      0.03135021     -0.00003618
O      -0.55351650      1.39540154     -0.00005779
O       0.70337712     -0.48257631     -0.00008348
C       1.83654431      0.40087747      0.00002840
C       3.07623417     -0.46766647      0.00000654
H      -3.59105500     -0.67157067     -0.87846403
H      -3.15961717      0.77946686     -0.00007674
H      -3.59099380     -0.67140649      0.87862071
H      -1.42311572     -1.82650436      0.00003357
H      -1.46817454      1.69527936     -0.00001009
H       1.80442362      1.04249424     -0.88264112
H       1.80435795      1.04235720      0.88279589
H       3.10302454     -1.10521936      0.88385296
H       3.10308660     -1.10508458     -0.88393527
H       3.96845081      0.16038331      0.00008557
