15
b3lypvtz=-214526.20268202
C       1.60473521     -1.11700517     -0.59233584
C       1.02737597      0.23486454     -0.18748065
N       1.13000833      0.42048136      1.25193921
C      -0.45174146      0.38003692     -0.59565984
O      -0.96965419      1.66178200     -0.24148302
C      -1.31034426     -0.62857239      0.04292964
N      -1.97875456     -1.45100132      0.48758619
H       1.09899879     -1.92430529     -0.06312767
H       1.51004246     -1.28264937     -1.66694841
H       2.66623961     -1.16135116     -0.34410963
H       1.54846319      1.01785130     -0.76532693
H       2.09288603      0.37933507      1.55984428
H       0.74515395      1.31533180      1.52799998
H      -0.52943441      0.22140038     -1.67726442
H      -0.63290566      2.30428831     -0.87444290
