11
b3lypvtz=-295538.6854867
N      -2.78958732     -0.09785921      0.20235958
C      -1.68278373      0.35110632     -0.20825299
C      -0.48703032     -0.45578799     -0.65896139
C       0.80562588     -0.03086292      0.00653714
F       1.09060578      1.26526919     -0.23777711
F       1.84502835     -0.76124569     -0.44341860
F       0.75660164     -0.18388899      1.34350899
H      -2.79422454     -1.12011346      0.22788588
H      -1.56852189      1.43429762     -0.27075444
H      -0.34096188     -0.32613364     -1.73453013
H      -0.63547798     -1.51723622     -0.45966293
