16
b3lypvtz=-204445.42882218
C       0.82739586      1.54916814      0.01490821
C       0.62859440      0.22781118      0.00085774
C       1.71228352     -0.79341295     -0.01189608
N       2.96728927     -0.62490625     -0.01211256
O      -0.57597119     -0.40130764     -0.00414863
C      -1.75951091      0.39653793      0.00634571
C      -2.95282922     -0.53428470     -0.00226083
H       0.02616854      2.26936821      0.02393470
H       1.83410821      1.93882458      0.01763859
H       1.33395312     -1.81634144     -0.02232795
H       3.21362731      0.36719576     -0.00183747
H      -1.75850855      1.03103536      0.89860873
H      -1.76104463      1.05054767     -0.87169462
H      -3.87675888      0.04535223      0.00561744
H      -2.94755394     -1.16144804     -0.89360092
H      -2.94484690     -1.18126104      0.87478895
