11
b3lypvtz=-236275.22522416
C      -1.89001020     -0.16321151      0.07828850
O      -0.79700916      0.47895906     -0.59264137
C       0.43038605      0.16613650     -0.16457022
C       1.62599710      0.62389990     -0.62231808
O       2.58784829      0.03929082      0.10269525
N       1.94398240     -0.80578889      1.03605349
N       0.69982950     -0.70847373      0.85415448
H      -2.78662312      0.21214494     -0.40576805
H      -1.82887414     -1.24651632     -0.02907232
H      -1.89893882      0.09211217      1.13819111
H       1.91341208      1.31144708     -1.39501279
