15
b3lypvtz=-216891.61881426
C      -2.10065684     -0.17607439      0.02806459
C      -0.90426848      0.73144147      0.02054726
C       0.45760249      0.24977770     -0.18533754
O      -0.21784652      0.89867273     -1.24287264
C       1.79465053      0.69020772      0.39151000
O       2.24320245     -0.68891540      0.41080635
C       1.03979120     -1.15528031     -0.25019398
H      -2.95761497      0.31642180     -0.43468700
H      -1.89929724     -1.09595388     -0.52042435
H      -2.37535027     -0.43466888      1.05308825
H      -1.02201252      1.66597365      0.56529682
H       2.38880158      1.30945744     -0.28614172
H       1.78486316      1.13303984      1.39017344
H       0.53167641     -1.93286139      0.32531150
H       1.23645902     -1.51123808     -1.26514099
