16
b3lypvtz=-181124.88999614
C      -0.13181582      1.27201091      0.63440034
C      -0.22659193     -0.12544347      0.09231277
C      -1.35328701     -0.68716515     -0.35988600
N      -2.61419066     -0.10051890     -0.47757422
C       1.06482007     -0.91985500      0.06100247
C       2.08737173     -0.35798166     -0.82509889
C       2.91957872      0.11139915     -1.55140173
H      -1.08354007      1.80296236      0.61769207
H       0.22654470      1.27109091      1.66942551
H       0.57895519      1.86813626      0.05589010
H      -1.31865736     -1.69898408     -0.74828066
H      -2.76919833      0.71974472      0.08736261
H      -3.38235144     -0.74780796     -0.39880430
H       1.48904386     -0.98212319      1.07111245
H       0.85932128     -1.94801489     -0.24729449
H       3.65399704      0.52254995     -2.19742514
