12
b3lypvtz=-200530.89310395
C      -0.70198391      1.69745812     -0.17478890
C      -0.87126362      0.38145771      0.00313379
N      -2.11070601     -0.25074537      0.14198804
C       0.27967879     -0.56099850     -0.05591999
N       0.21380675     -1.82561655     -0.19429695
C       1.60383015      0.02313854      0.06355437
N       2.64715477      0.49891121      0.15829542
H      -1.53901071      2.38196581     -0.14655030
H       0.27284143      2.11002162     -0.38252827
H      -2.15953414     -0.91145994      0.90609611
H      -2.89078566      0.38831129      0.17369543
H      -0.76000884     -2.11241395     -0.30673575
