16
b3lypvtz=-202052.39820683
C      -1.00980734      1.93541636      0.16490688
N      -1.45139838      0.61645357     -0.23526413
C      -0.76730607     -0.56333287     -0.09979891
N      -1.61446562     -1.65693792     -0.29291803
C       0.55948084     -0.74443028      0.17404875
C       1.63551302      0.20821207      0.04949457
N       2.87627717      0.02666728      0.31621588
H      -0.40034018      2.44229279     -0.58880515
H      -0.42867169      1.86541905      1.08302838
H      -1.88724140      2.55189546      0.36242946
H      -2.25720316      0.56900990     -0.83583088
H      -2.47443448     -1.62420535      0.23680086
H      -1.15566362     -2.55106072     -0.22519206
H       0.84862745     -1.74772185      0.46981102
H       1.38523806      1.19185073     -0.34531868
H       3.02619739     -0.92111121      0.67174104
