12
b3lypvtz=-223807.6917649
N       2.57813500     -0.63959316     -0.01672747
N       1.36628294     -0.79345191     -0.20377015
C       0.56793744      0.36710734      0.14568670
N       0.85497079      1.55452415     -0.17512227
C      -0.74497277      0.00507417      0.78043646
C      -1.90485694      0.16925643     -0.19676993
O      -2.80330641     -0.61802085     -0.30542160
H       3.04569261     -1.49725249     -0.34429316
H       1.77478179      1.59823154     -0.61763034
H      -0.92566551      0.70902596      1.59728056
H      -0.74975851     -1.01105070      1.16848904
H      -1.86043340      1.09687852     -0.79945784
