12
b3lypvtz=-200516.41503594
C       1.64252677      0.07910824     -0.20830468
C       0.15893044      0.00772482     -0.01018111
C      -0.65606824      1.12747853      0.06269718
N      -1.97825188      1.05405056      0.21313142
N      -2.56722100     -0.12395570      0.30254836
N      -1.86253385     -1.23920917      0.25601264
C      -0.53939238     -1.18487667      0.10580340
H       2.05498180      0.99386393      0.21710603
H       1.88853327      0.07175703     -1.27302926
H       2.14452399     -0.77280212      0.25002540
H      -0.25084133      2.13193112      0.00228623
H      -0.03518758     -2.14507057      0.08190440
