17
b3lypvtz=-194364.95375726
C      -2.64688006     -0.51250018     -0.24055021
C      -1.42549375     -0.77013974      0.20492189
C      -0.32720083      0.24069947      0.37395569
O      -0.82433714      1.53192772      0.03534090
C       0.89153521     -0.11559511     -0.45409612
C       2.24062427      0.43826605     -0.06753350
C       1.94737343     -1.02910502      0.09957660
H      -2.94376746      0.49026266     -0.51380460
H      -3.38218956     -1.30006541     -0.33965872
H      -1.14594797     -1.78245351      0.47873952
H      -0.02242259      0.22999542      1.43345667
H      -0.07300427      2.13080914     -0.01104863
H       0.68665981     -0.19473035     -1.51495750
H       2.30496786      1.03892727      0.83135778
H       2.91614355      0.74125925     -0.85511457
H       2.42188105     -1.72873313     -0.57390165
H       1.81831545     -1.40126754      1.10745444
