17
b3lypvtz=-194364.69033505
C       2.83270280      0.08216878      0.05521209
C       1.75258337     -0.35669780     -0.23221787
C       0.41974652     -0.86361612     -0.53429126
C      -0.71855240      0.03113461      0.03306189
C      -0.72222418      1.40944080     -0.63318646
C      -2.05720882     -0.67391945     -0.15841994
O      -0.55503118      0.16712588      1.44691865
H       3.79732172      0.45612976      0.29238910
H       0.31390626     -1.86254418     -0.10433224
H       0.30095441     -0.96335840     -1.61652170
H       0.23896171      1.90846631     -0.50210349
H      -0.91922146      1.33269304     -1.70423330
H      -1.49624019      2.02991435     -0.18211441
H      -2.05879957     -1.63222457      0.36124223
H      -2.26071052     -0.84690349     -1.21586347
H      -2.86046168     -0.06306577      0.25291750
H       0.32375722      0.52890325      1.61351066
