18
b3lypvtz=-205192.84832843
C       2.40369152      0.39896797     -0.21110191
N       0.96711150      0.26830958     -0.26350554
C       0.36994770     -1.07969141     -0.21907472
C      -0.78368817     -0.51053244      0.64318582
C      -2.03806220     -0.17213033     -0.14465742
O      -3.01295564      0.51412561      0.63633100
C       0.16939299      0.68289026      0.90379580
H       2.85076101     -0.10823019      0.66197475
H       2.84804375     -0.02454509     -1.11371096
H       2.67952869      1.45430828     -0.16844755
H       0.98082545     -1.80600260      0.33563436
H       0.11810462     -1.50343495     -1.19491260
H      -1.05162165     -1.09265664      1.52279119
H      -2.52401498     -1.09202806     -0.47524691
H      -1.77253402      0.40333386     -1.03903871
H      -2.67469684      1.39036742      0.84364595
H       0.70810528      0.57917665      1.85645880
H      -0.23763899      1.69767208      0.84497866
