18
b3lypvtz=-205207.91803747
C       3.12373402      0.22473454     -0.20362488
O       1.81790856     -0.21933096     -0.49023724
C       0.94171667     -0.10944767      0.63569707
C      -0.37795025     -0.72115582      0.32170898
C      -1.51374004     -0.06978961      0.02665024
C      -1.65868322      1.42116082     -0.08555960
N      -2.72654312     -0.74469876     -0.14217980
H       3.14070424      1.28424332      0.08758557
H       3.71816573      0.10089392     -1.10778872
H       3.58453965     -0.35818133      0.60560088
H       0.84787896      0.94478853      0.92310043
H       1.40205320     -0.62854516      1.48926754
H      -0.40399267     -1.80680277      0.33111226
H      -2.36247630      1.79516625      0.66175791
H      -0.71270354      1.93956975      0.03295335
H      -2.05993864      1.68517208     -1.06869075
H      -2.64152839     -1.73958365     -0.28760354
H      -3.35818487     -0.32450648     -0.80702272
