15
b3lypvtz=-191207.35027513
C       2.69133652     -0.27733746      1.07616989
C       1.44329345      0.03414020      0.39798397
C       0.40954477      0.28604180     -0.16406582
C      -0.84079406      0.59311687     -0.81966643
N      -1.95188352     -0.00194565     -0.63216087
C      -2.05132123     -1.12850734      0.26590955
N      -0.75281326      1.60988638     -1.76182681
H       2.89564280      0.44619667      1.86802757
H       3.53110651     -0.25719217      0.37905572
H       2.65321915     -1.26910870      1.53018227
H      -2.81546300     -0.92142422      1.01975852
H      -1.11811476     -1.38550772      0.77880876
H      -2.39190252     -2.00632499     -0.29034900
H      -0.05097049      2.31191653     -1.59539774
H      -1.65088037      1.96604979     -2.05242958
