13
b3lypvtz=-242045.58130584
C      -1.36599517     -0.93965317      0.54950900
C      -0.44462260      0.24464514      0.64671592
C      -0.76594140      1.37863243      1.27502935
C       0.85842397      0.10505673      0.00733444
F       1.69435189      1.17861724      0.09474425
N       1.23444721     -0.93996061     -0.60707072
O       2.49472682     -0.92558808     -1.16162185
H      -0.91300721     -1.82494047      0.99740936
H      -2.30541254     -0.72805651      1.05677436
H      -1.57365644     -1.18854541     -0.49187475
H      -1.73044114      1.48846281      1.75092710
H      -0.08542183      2.21515253      1.33046163
H       2.90254844     -0.06372264     -0.97453808
