18
b3lypvtz=-205215.32106166
C      -2.71992219     -0.82681382      0.02113327
C      -1.19524251     -0.83723084     -0.07573634
C      -0.56361903      0.47827756      0.38794166
O      -1.08056897      1.59367793     -0.36958619
C       0.93772715      0.51305925      0.39062265
C       1.75381885     -0.43760935     -0.07547992
N       3.13689298     -0.34975664     -0.18322385
H      -3.13752487     -0.00539498     -0.55982248
H      -3.04694991     -0.70153070      1.05586223
H      -3.14362139     -1.76149692     -0.34960823
H      -0.89523969     -1.03275479     -1.11019196
H      -0.79349599     -1.65454171      0.52986433
H      -0.92140873      0.68144498      1.40304601
H      -0.59648578      1.61715799     -1.20250541
H       1.36735230      1.43289007      0.77907792
H       1.35420863     -1.36445292     -0.46883749
H       3.63394445     -1.22217887     -0.10381625
H       3.56946571      0.38358275      0.35769104
