17
b3lypvtz=-217718.96720797
C      -0.97779725     -0.49756923      1.22963842
C      -0.11600429     -0.01288725      0.05915691
C      -0.21746166      1.51962997     -0.07686674
C      -0.57241261     -0.68458234     -1.25155176
C       1.34009950     -0.38961598      0.32556250
O       1.75670923     -0.97307978      1.29356090
O       2.16804945      0.01013503     -0.67411207
H      -0.91001543     -1.57832648      1.34936916
H      -2.02141430     -0.23399162      1.05154828
H      -0.66206215     -0.04255124      2.16776906
H      -1.25593445      1.80044276     -0.25969078
H       0.38848000      1.88728120     -0.90336228
H       0.10898243      2.01903852      0.83692659
H       0.02779057     -0.35479086     -2.09796450
H      -1.61474427     -0.42827985     -1.44776502
H      -0.50177374     -1.77143784     -1.18317092
H       3.05960896     -0.26941500     -0.41934775
