16
b3lypvtz=-181144.63292511
C      -1.22660543     -0.58394065     -0.52898536
C      -1.51570451      0.77078502      0.17743337
C      -0.15758171      0.65987169      0.91373422
C       0.03449954     -0.79062253      0.35893244
C       1.39581990     -0.75105380     -0.34237989
C       1.69324047      0.73470956     -0.33232981
N       0.90026694      1.48080279      0.31938728
H      -2.00144039     -1.34111836     -0.41803845
H      -0.99620036     -0.48804383     -1.59062439
H      -2.36973535      0.73261107      0.85291033
H      -1.61440438      1.64509018     -0.46403659
H      -0.17899932      0.82405893      1.99123198
H      -0.05929329     -1.60042919      1.07881781
H       2.17501084     -1.30150019      0.19439061
H       1.37289731     -1.15313577     -1.35915432
H       2.54822976      1.16191510     -0.85128925
