15
b3lypvtz=-214504.441099
C       1.49662891      1.49206393     -0.35745445
C       1.13078272      0.25620502     -0.02088474
C       2.12141235     -0.79309074      0.41312017
C      -0.30136206     -0.13596906     -0.05301074
N      -0.61274489     -1.43335472     -0.39983875
N      -1.17409867      0.73734230      0.31004517
O      -2.48738913      0.19559632      0.16390562
H       2.53269264      1.80068838     -0.30476472
H       0.76797015      2.22281070     -0.67612959
H       3.12339839     -0.37066509      0.46975950
H       1.85752290     -1.20166995      1.39090968
H       2.15820340     -1.63874698     -0.27895413
H       0.00874081     -1.89083120     -1.04465689
H      -1.59238866     -1.59230909     -0.57442535
H      -3.03600486      0.91211718      0.49311521
