18
b3lypvtz=-181888.1194969
C       2.23881536      0.33868771      0.40532031
C       1.01002636     -0.35362703     -0.16551790
C      -0.02928912     -0.99447128      0.81804643
C      -1.14034085     -0.15247155      0.16727185
C      -0.11710520      0.49845839     -0.76413878
C      -0.81669724      1.30207931      0.29994250
N      -2.47350103     -0.55450913     -0.14310631
H       2.89909659     -0.37806035      0.89895418
H       2.81277070      0.82882242     -0.38442471
H       1.97064839      1.09995612      1.14008364
H       1.32815077     -1.10376921     -0.89178135
H      -0.15419593     -2.06432393      0.64711396
H       0.13688683     -0.82864199      1.88614562
H      -0.22620115      0.74938366     -1.81046252
H      -0.28042829      1.67858637      1.16402973
H      -1.58893722      1.96084083     -0.07341959
H      -3.06881462     -0.53158056      0.67726223
H      -2.50088436     -1.49535979     -0.51820722
