11
b3lypvtz=-233856.3159926
C      -2.39061553      0.23030081     -0.41897743
N      -1.18828568      0.30262292     -0.81298357
C      -0.17909948      0.12685615      0.16439664
N      -0.36591341     -0.09893890      1.38565292
O       1.02594455      0.25559065     -0.50857670
N       2.18122099      0.10095705      0.35349880
N       3.21235424      0.21921670     -0.26427087
H      -2.66463594      0.04246033      0.62027272
H      -3.17950075      0.36213130     -1.15406338
H       0.50174903     -0.19112707      1.90407653
H       3.04678198      0.40410884     -1.26902566
