16
b3lypvtz=-202015.09073547
C       0.59605347     -1.67330440     -0.76014001
N       0.80948902     -0.30550275     -0.34439444
N       1.97210500      0.27096932     -0.73876610
C       2.24299182      1.47633071     -0.41937905
N      -0.07381988      0.39189536      0.39086409
C      -1.17592793     -0.13364806      0.77301285
C      -2.14389353      0.65967955      1.58966709
H      -0.30107018     -1.76290418     -1.38147276
H       0.48394103     -2.33716390      0.10334083
H       1.46453195     -1.97383045     -1.33538073
H       1.58815634      2.10884356      0.16969871
H       3.19028684      1.85972888     -0.77354639
H      -1.45173305     -1.15851007      0.52623828
H      -1.75876679      1.66173135      1.76871379
H      -3.11049688      0.73878141      1.08379105
H      -2.33164723      0.17700367      2.55315279
