17
b3lypvtz=-191963.53817833
N       1.78236364      0.49552266      0.97044656
C       1.32141729     -0.66062989      0.23943025
C       0.41559025     -0.51660859     -0.96355284
N      -0.17885513      0.80665790     -1.09921978
C      -1.44950468      0.80474084     -0.34592776
C      -1.15139209     -0.10892381      0.85734056
C      -0.12554193     -1.10411723      0.32085037
H       2.79013596      0.56009004      0.89881971
H       1.40179654      1.32529974      0.52017356
H       2.04174006     -1.46868008      0.21113364
H       0.56276751     -1.10477504     -1.86180471
H      -0.29232686      1.07509466     -2.06550427
H      -2.27878354      0.38797670     -0.93476969
H      -1.72119756      1.81992936     -0.05164038
H      -0.73652643      0.46300078      1.68967103
H      -2.04982506     -0.61250322      1.21126914
H      -0.33195794     -2.16217483      0.40328460
