19
b3lypvtz=-192748.01427764
N       2.52243004     -0.48893238     -0.17099896
C       1.20764154     -0.13347369      0.35575364
C       0.76436484      1.27283324     -0.09672483
C      -0.78261285      1.27446635     -0.03625504
C      -1.20325593     -0.16209900      0.35787033
N      -2.43038874     -0.57561403     -0.32987439
C       0.00582659     -1.01490627     -0.02773208
H       2.48454666     -0.56766043     -1.18215819
H       2.81873593     -1.39190103      0.18118391
H       1.29986165     -0.13752156      1.44656448
H       1.22232622      2.05277233      0.51050920
H       1.10707505      1.43450579     -1.12157446
H      -1.21205706      1.50355602     -1.01268658
H      -1.17091509      2.01137515      0.66811080
H      -1.30850341     -0.20317079      1.45257961
H      -3.20071170      0.02931643     -0.06511308
H      -2.69602623     -1.51177151     -0.04319878
H       0.01991736     -1.99326297      0.45895115
H      -0.00436786     -1.17642867     -1.11081271
