13
b3lypvtz=-190391.7361579889
C       2.22854875      0.08419803     -0.16531926
C       1.05548062     -0.07321740      0.43637125
C      -0.20259677     -0.35752872     -0.29233014
C      -1.37077279      0.73232108     -0.03144926
N      -2.65484398     -0.10725499      0.26186326
C      -1.90141144     -1.08896357      0.31475123
N      -0.84301721     -1.72687254      0.23569673
H       2.33604443     -0.02402694     -1.23779138
H       3.12185177      0.32813435      0.39376945
H       0.96910697      0.02327418      1.51323165
H      -0.03223529     -0.48892168     -1.35867418
H      -1.55530033      1.34813649     -0.90690715
H      -1.15085471      1.35072169      0.83678779
