13
b3lypvtz=-190432.89030007
C      -1.41200554     -0.04804361      0.35663828
C      -0.53977283     -0.92283639     -0.60609699
C       0.67171759     -0.06004786     -0.22642812
C      -0.17108161      0.78115031      0.68709263
N       0.31879620      1.34108009     -0.57936409
C       2.02715189     -0.47155007     -0.08799377
N       3.12155395     -0.81873517      0.02065825
H      -1.78111451     -0.61675359      1.20745711
H      -2.22713574      0.51321645     -0.09640266
H      -0.79249359     -0.89774600     -1.66393745
H      -0.44558468     -1.95144271     -0.26668221
H       0.10327143      1.22466064      1.63314117
H       1.12669744      1.92704790     -0.37808216
