19
b3lypvtz=-195138.30422027
C      -1.40281325      1.30554197     -0.32994310
C      -0.67301134      0.00520157      0.00150884
C      -1.46448722     -1.20912419     -0.49301922
O      -0.59134480     -0.02458156      1.43605368
C       0.72140220      0.01419795     -0.62655920
C       1.86170318      0.75712471      0.00480177
C       1.87427945     -0.75057197     -0.03627790
H      -2.40188546      1.30090122      0.10661960
H      -1.49327336      1.43331698     -1.40942642
H      -0.85430634      2.15636148      0.07350283
H      -1.58064774     -1.18817923     -1.57794556
H      -2.45633473     -1.22568867     -0.03977410
H      -0.94802641     -2.13705853     -0.23477478
H      -0.34890075     -0.91488096      1.70911031
H       0.69016539      0.03579359     -1.71020936
H       2.54432180      1.29809893     -0.63573430
H       1.67697810      1.21303919      0.96713501
H       2.55683562     -1.24893497     -0.71062085
H       1.72907767     -1.26583952      0.90412874
