13
b3lypvtz=-237074.10584737
C       2.46906840     -0.87947274     -0.00000184
N       1.01535867     -0.79094601      0.00000722
C       0.48002854      0.33727191      0.00004471
O       1.11875630      1.52471653     -0.00001183
O      -0.87905494      0.54799506      0.00001680
C      -1.73082223     -0.54692433      0.00001831
N      -2.97704030     -0.43059982     -0.00001684
H       2.75540348     -1.92896339      0.00005287
H       2.90436574     -0.40272206     -0.88244205
H       2.90439279     -0.40261081      0.88236557
H       0.46421493      2.23471595     -0.00001443
H      -1.20747618     -1.49486744     -0.00005638
H      -3.26874419      0.54734116     -0.00000010
