11
b3lypvtz=-192049.70792362
C       3.06667011     -0.14233229      0.51287639
C       1.91171681      0.01740807      0.22565750
C       0.54434914      0.20562485     -0.11395088
O       0.33352037      1.19140987     -1.01869882
C      -0.44930436     -0.54040135      0.42527757
C      -1.79733862     -0.33031584      0.06777134
C      -2.93455623     -0.11297539     -0.26967612
H       4.08766499     -0.28414979      0.76702816
H      -0.61926648      1.24713903     -1.18840079
H      -0.19937437     -1.30880606      1.14147856
H      -3.94418135      0.05759890     -0.54936290
