14
b3lypvtz=-224624.92778695
C       2.13476744     -1.11342268      0.00021017
N       0.75914614     -0.67476516     -0.00050937
C       0.42402726      0.63898426     -0.00009294
N       1.17125233      1.67713613      0.00020341
N      -0.97031192      0.90023483     -0.00013359
C      -2.01405183      0.03044163      0.00008532
O      -1.94311199     -1.18502072      0.00022070
H       2.15153354     -2.20077803      0.00002104
H       2.67336564     -0.76390169     -0.88573331
H       2.67244730     -0.76417517      0.88683281
H       0.00009757     -1.34193852      0.00001657
H       2.15648789      1.43869082      0.00019123
H      -1.17090690      1.88861126     -0.00010357
H      -2.98170048      0.55691704     -0.00001347
