18
b3lypvtz=-181883.6536312
C       1.98209628     -0.44809754      0.40237436
C       0.89395790      0.11769937     -0.48740898
C      -0.58166622     -0.01670122     -0.07856367
C      -1.53447842     -1.13870410     -0.32090782
C      -1.13736355     -0.76655487      1.08958314
C      -0.75374764      1.47207139     -0.37192844
N       0.72765806      1.59851726     -0.40930331
H       1.97164792     -1.54116311      0.39301920
H       2.96553530     -0.12373524      0.05536271
H       1.85428999     -0.10287218      1.42844491
H       1.03691566     -0.23578099     -1.51763601
H      -2.53608086     -0.89613665     -0.65280077
H      -1.14254397     -2.06151793     -0.73016250
H      -0.48426923     -1.44161354      1.62673462
H      -1.86913898     -0.26608271      1.71064398
H      -1.23170239      2.08014047      0.39989490
H      -1.24961541      1.66311581     -1.33082016
H       1.08850555      2.10741578     -1.20652614
