13
b3lypvtz=-237092.45652735
C      -2.40685050     -0.75998747      0.00008259
N      -1.62118101      0.46373954     -0.00016178
C      -0.27147111      0.55469166      0.00000098
O       0.35082858      1.59364456      0.00009571
O       0.28041583     -0.70487116     -0.00003492
C       1.66282634     -0.91497121     -0.00006124
N       2.60895748     -0.10143554     -0.00003016
H      -3.45940373     -0.48556515     -0.00079873
H      -2.20613977     -1.36529435     -0.88407674
H      -2.20735813     -1.36429944      0.88521650
H      -2.08891025      1.35309902      0.00010916
H       1.81385442     -1.99006184     -0.00011703
H       2.28396385      0.86352139      0.00002566
