10
b3lypvtz=-220637.16802586
N      -2.34919812     -0.38089612     -0.00013859
N      -1.56868680      0.57687575     -0.00009653
N      -0.24669206      0.19111372     -0.00000898
C       0.79522590      1.08791821     -0.00002487
N       1.92848014      0.46125605      0.00001805
N       1.64568511     -0.90809602      0.00020385
C       0.35682733     -1.05079773      0.00002152
H      -3.28826995      0.02760050     -0.00029485
H       0.64134211      2.15328790      0.00001743
H      -0.19212467     -1.97446428     -0.00002505
