14
b3lypvtz=-203680.54044993
C       2.03906853     -0.96411881     -0.31226684
C       1.05302733     -0.34337202      0.32367470
C      -0.15081477      0.23273219     -0.34018462
C      -0.63774557      1.63470357      0.08802555
O      -1.91942078      1.07862149      0.51457322
C      -1.52218997     -0.19851400      0.20304419
N      -2.20101235     -1.23023579      0.39364745
H       2.03474165     -1.08333348     -1.38938699
H       2.88592395     -1.37453795      0.22117257
H       1.09085439     -0.24601020      1.40497469
H      -0.09326091      0.11360716     -1.42245657
H      -0.10873422      2.07875172      0.93046145
H      -0.77135424      2.36335460     -0.70959764
H      -1.69908304     -2.06164850      0.09431884
