14
b3lypvtz=-224588.93749564
C       1.85602576      0.93149610     -0.97082427
N       1.40269265      0.87701962      0.22457757
C       0.38698389      0.11531128      0.71208107
C      -0.70907717     -0.38962184      0.08017810
N      -1.79189689     -0.88278222      0.80606123
N      -0.90633865     -0.41231083     -1.29757201
O       0.39408638     -0.01502881      2.10394122
H       1.55222187      0.27880239     -1.79029177
H       2.65356367      1.63509367     -1.18512619
H      -1.59424201     -0.93410361      1.79422930
H      -2.14527943     -1.76199564      0.45342900
H      -0.30027813      0.20929578     -1.81419587
H      -1.87730760     -0.23991756     -1.52924217
H       1.07884567      0.58874169      2.41275478
