18
b3lypvtz=-181920.42007643
C      -2.53895503     -0.57195881     -0.08246785
C      -1.15706936     -0.01627220     -0.01060353
C      -0.75815010      1.26030219     -0.01712763
C       0.75070489      1.31451513     -0.02060196
C       1.13291522     -0.12937934      0.38734308
C       2.40767107     -0.66591129     -0.24466413
N      -0.06554887     -0.90687551     -0.00429529
H      -2.76218294     -1.19624443      0.78832310
H      -2.65576525     -1.20209045     -0.96791377
H      -3.27718758      0.22674472     -0.12456015
H      -1.40744901      2.11396295     -0.13190529
H       1.13731611      1.54356906     -1.02246619
H       1.17656528      2.05351544      0.66019839
H       1.23640702     -0.15668692      1.48098658
H       3.26836693     -0.06282668      0.05236844
H       2.32994742     -0.64810406     -1.33254896
H       2.60162390     -1.69536102      0.06393010
H      -0.20980069     -1.75396178      0.52907705
