13
b3lypvtz=-239655.20802996
C      -2.73900969     -0.05599720     -0.21181902
N      -1.40173234     -0.57241427     -0.40145367
C      -0.42997641      0.21727077     -0.21914123
C       0.95429364     -0.19821456     -0.38395187
F       1.17060687     -1.48121921     -0.75606677
N       1.92148152      0.59801957     -0.18570659
N       3.18756586      0.17029187     -0.42220520
H      -2.77014131      1.00118645      0.08344892
H      -3.30436469     -0.18252510     -1.13785712
H      -3.24752345     -0.65252125      0.54890291
H      -0.53825062      1.26710532      0.07438098
H       3.85745065      0.71873873      0.09120010
H       3.33969997     -0.82982113     -0.36703146
