16
b3lypvtz=-204425.06003409
C      -1.64607215     -0.42300385      0.05212327
C      -0.37518952     -1.29249570      0.28786216
C       0.45454403     -0.01883331      0.13212026
C      -0.79301716      0.85218279      0.33107421
O      -0.91114678      1.96476741     -0.51022456
C       1.88145715      0.28233671      0.31601929
N       1.27804751      0.29329461     -1.03798905
H      -2.50276614     -0.60097766      0.69948274
H      -1.96893274     -0.44336526     -0.98803364
H      -0.18124644     -2.09417095     -0.42524479
H      -0.32306794     -1.70278211      1.29692636
H      -0.90672191      1.18624230      1.36525895
H      -0.26832338      1.82375903     -1.22286409
H       2.18809462      1.25496824      0.68161923
H       2.55026847     -0.53252984      0.56878406
H       1.52407238     -0.54939242     -1.54691440
