20
b3lypvtz=-182649.48165497
C      -2.30677322     -0.92084829     -0.25403534
C      -1.52648635      0.22280973      0.38614113
N      -0.30528866      0.57954982     -0.33822040
C       0.22209297      1.86401364      0.08760632
C       0.63891826     -0.51212907     -0.40740596
C       1.45618578     -1.00460923      0.77311483
C       2.12559010     -0.33744542     -0.40706485
H      -1.77253200     -1.86901417     -0.19410109
H      -2.50895440     -0.70635312     -1.30452614
H      -3.26051832     -1.05120929      0.25984839
H      -2.15977069      1.11217971      0.40074844
H      -1.30922755     -0.02708246      1.43929131
H       0.60320826      1.88008335      1.12321129
H       1.02284808      2.18449590     -0.57649368
H      -0.57346794      2.60683519      0.02479716
H       0.28845779     -1.29864508     -1.06335574
H       1.57642704     -2.07000003      0.91403254
H       1.41515257     -0.43463771      1.69143845
H       2.54462728      0.64364718     -0.24080533
H       2.70008999     -0.94636364     -1.09155435
