17
b3lypvtz=-215263.66098992
C       1.76143578     -0.17459743     -0.64289916
C       0.43440851     -0.25186872      0.06354349
C      -0.84130474      0.08089989     -0.60421403
N      -0.22341353      1.04162600      0.33779019
C      -2.11509544     -0.62646104     -0.23152261
O      -3.27858636      0.15403012     -0.48618310
N       2.81103050      0.16023720      0.32252366
H       1.67337479      0.53950455     -1.47254514
H       1.99313978     -1.15172337     -1.07544183
H       0.39687361     -0.99183192      0.85714621
H      -0.80703273      0.41893088     -1.63489340
H      -0.69585243      0.99926992      1.23690194
H      -2.06979434     -0.93660542      0.82185306
H      -2.23495883     -1.52856920     -0.83426092
H      -3.17730306      1.00536606     -0.04830311
H       3.71955887      0.16328346     -0.12492997
H       2.65351962      1.09850900      0.67354374
