16
b3lypvtz=-204430.50471416
C       2.68832695     -0.04364707      0.25430211
N       1.62663104     -0.15474428     -0.41534340
C       0.57229826      0.81828467     -0.19905286
C      -0.79160481      0.17778999      0.00924566
O      -1.78974378      1.14403405      0.25475811
C      -1.19040943     -1.07249463     -0.71497987
C      -0.95001524     -1.08609491      0.78430181
H       3.49442270     -0.75780780      0.09996902
H       2.85475428      0.74625513      0.99740700
H       0.51623757      1.43983206     -1.10071720
H       0.77821640      1.48437588      0.65063706
H      -2.01745018      1.56349846     -0.58229673
H      -0.45536104     -1.54968200     -1.34669164
H      -2.21641770     -1.13497368     -1.05067831
H      -0.06169130     -1.58331917      1.14676139
H      -1.81512770     -1.14705169      1.42873084
