14
b3lypvtz=-203703.42913409
C       1.57189380     -0.69288346     -0.64203357
C       0.54367942      0.23100269     -0.07530028
C       0.67604574      1.54441080      0.23965358
O      -0.47364892      2.05045418      0.74996840
C      -1.38470894      1.02504625      0.75396482
C      -0.81486987     -0.10898894      0.26487711
N      -1.35400450     -1.40041515      0.17872046
H       1.28241128     -1.06883669     -1.62804012
H       1.72190458     -1.56231955      0.00267424
H       2.53182373     -0.18963181     -0.75528270
H       1.50322740      2.22815203      0.16113640
H      -2.36158987      1.25534420      1.13843271
H      -1.08356357     -1.88809817     -0.66363369
H      -2.35860028     -1.42323638      0.27486263
