10
b3lypvtz=-202086.05533635
C       2.49161468     -1.02893544      0.20021477
C       1.45418255     -0.44767501      0.03889527
C       0.19298925      0.19962952     -0.13404972
N       0.20825579      1.40380463     -0.60437581
O      -1.06101623      1.93090948     -0.72987950
C      -0.98979906     -0.51775346      0.22000558
C      -1.97346391     -1.13524200      0.52269495
H       3.41354422     -1.53633749      0.34002368
H      -0.89117666      2.81115115     -1.08353320
H      -2.84513062     -1.67955138      0.78986682
