16
b3lypvtz=-181155.76942359
C       2.46551692     -0.04067917     -0.09409796
C       0.96868677     -0.05686015      0.03678682
C       0.24961992     -1.18774401     -0.02902165
C      -1.24434092     -1.16821707      0.17956598
N      -1.77702544      0.11508882     -0.27877378
C      -1.05806086      1.25417663     -0.00988393
C       0.27461105      1.21712657      0.18995738
H       2.86955193     -1.04600345     -0.20969972
H       2.92489073      0.41208109      0.78927763
H       2.77941249      0.55707586     -0.95405559
H       0.72750410     -2.14771363     -0.17789330
H      -1.48896594     -1.34206952      1.24504801
H      -1.72731947     -1.96672916     -0.38691942
H      -2.77828699      0.20359858     -0.27165746
H      -1.61343316      2.18268196     -0.04063576
H       0.82712085      2.13214065      0.34234576
