18
b3lypvtz=-181889.41059764
C       1.92662028     -0.36905937     -0.36273076
C       0.45261929     -0.02330621     -0.45927773
C      -0.07937426      1.22466460      0.22329661
C       0.33073377      2.47395846      0.34224141
C      -1.21237087      0.40089971      0.79362370
N      -0.46629945     -0.81875988      0.40176721
C      -1.20727803     -1.90171485     -0.20412255
H       2.52636622      0.33459558     -0.94409364
H       2.25629727     -0.33686358      0.67539308
H       2.11600121     -1.37037157     -0.75517244
H       0.13091243     -0.04747022     -1.51394732
H       1.22792952      2.82472028     -0.15255280
H      -0.21355042      3.19488105      0.93963911
H      -2.15070432      0.53467271      0.23327305
H      -1.42548122      0.48861118      1.86127092
H      -1.80675386     -1.58139357     -1.07448639
H      -0.52137393     -2.68413653     -0.53308603
H      -1.88429363     -2.34392780      0.52896454
