18
b3lypvtz=-205212.86318235
C       0.73256822      1.61632351     -0.44128194
C       0.47060998      0.33811575      0.31145469
C       1.35410921     -0.66614056      0.34986033
N       2.57385232     -0.74490532     -0.32563205
C      -0.86254363      0.20169701      0.99966583
C      -2.07018413      0.15126691      0.06541358
O      -2.00237254     -1.04516646     -0.70522131
H       0.22476404      2.46049334      0.03183744
H       1.79616299      1.86667623     -0.47673059
H       0.38137549      1.57118521     -1.47768837
H       1.10882921     -1.56914803      0.89660735
H       3.28959819     -1.26413133      0.15846581
H       2.93031298      0.12723233     -0.68527111
H      -0.87635484     -0.70234779      1.61277727
H      -1.02078228      1.04914118      1.67898736
H      -2.98791514      0.17303193      0.66663530
H      -2.08094029      1.03399580     -0.58564597
H      -2.73127579     -1.05008172     -1.33130761
