12
b3lypvtz=-249550.09800884
N       2.67523045     -0.52925286      0.19489820
C       1.96225859      0.38041219     -0.27142254
O       0.56168104      0.47986200     -0.36611937
C      -0.29129164     -0.48890265      0.07698780
O       0.03835336     -1.51252308      0.61033847
C      -1.73857668     -0.07193498     -0.13612918
O      -1.96378676      0.85836850     -1.16562343
H       2.13464660     -1.30986109      0.55895319
H       2.37066917      1.28908146     -0.70150685
H      -2.29958406     -0.97383572     -0.37404169
H      -2.09868028      0.28592399      0.83936048
H      -1.35071978      1.59286225     -1.05989507
