15
b3lypvtz=-191217.42615083
C      -2.66486442      1.09631014     -0.01673336
C      -2.44563289     -0.22094320      0.01306304
C      -1.14066861     -0.87215020      0.01587603
N      -0.02847168     -0.23389628     -0.01391789
C       1.16389098     -0.91795419     -0.02281449
C       2.33815637     -0.24543561     -0.01716481
N       2.46140151      1.11530548      0.07799689
H      -3.66903482      1.49701740     -0.01478740
H      -1.84336292      1.79947658     -0.04253937
H      -3.29527348     -0.89523627      0.03924597
H      -1.14936395     -1.96871295      0.04609424
H       1.17184228     -2.00648919     -0.02824569
H       3.26867387     -0.79729214     -0.04038291
H       3.29039705      1.53875342     -0.30061409
H       1.60791471      1.63462602     -0.05920617
