14
b3lypvtz=-201290.95683196
N      -1.76438780      1.89723107     -0.08947413
C      -1.37394675      0.83728670      0.12804264
C      -0.88986208     -0.52326526      0.42847758
N      -1.44508603     -1.45157195     -0.57714073
C       0.61484472     -0.59194095      0.47160948
C       1.43130494      0.27990962     -0.12958106
N       2.80433969      0.19175232     -0.21602237
H      -1.25974897     -0.74698922      1.43933988
H      -0.90347038     -2.30664455     -0.57658215
H      -2.40671226     -1.68874234     -0.35980760
H       1.01901464     -1.44895913      1.00050136
H       1.01426955      1.13527416     -0.64894963
H       3.30236792      1.05842096     -0.32932002
H       3.26308281     -0.45244743      0.40823574
