12
b3lypvtz=-221402.00762807904
C       1.41637534     -0.69718687     -0.11796111
N       2.38747735      0.16040307     -0.23179998
N       3.21445338      0.92147046     -0.32727078
C       0.05294522     -0.22913623      0.08713761
N      -0.19503942      1.03190057      0.12046621
N      -1.57853438      1.31533749      0.35751510
N      -0.91685542     -1.21749607      0.18682768
H       1.68448897     -1.73528733     -0.22360806
H      -2.10583963      1.12278168     -0.49395156
H      -1.62946816      2.31642399      0.49577996
H      -1.73612367     -0.87830781      0.67712970
H      -0.59387959     -2.11090295      0.52382923
