17
b3lypvtz=-194349.25946294
C       2.06396182      0.47746386      0.43471087
C       1.11299026     -0.33850929     -0.44741445
C      -0.33503456     -0.10462476     -0.12569402
C      -1.09726016     -0.83090042      0.96680255
C      -1.59378053     -0.87317171     -0.44212341
O      -2.34335613      0.30980019     -0.74752907
C      -1.15091434      1.12022613     -0.53329826
H       1.92728420      0.23164393      1.48919705
H       1.88879917      1.54908977      0.31912353
H       3.10574215      0.28332773      0.17522711
H       1.33519084     -1.40344796     -0.33587660
H       1.29329361     -0.09808910     -1.50004090
H      -1.66840420     -0.28809870      1.71150083
H      -0.61701240     -1.73487737      1.32134930
H      -1.78960011     -1.76626070     -1.02018927
H      -0.82175428      1.56241295     -1.47710776
H      -1.31014534      1.90401544      0.21136250
