11
b3lypvtz=-212989.05198583
C      -1.45675579     -0.07961084     -0.31230181
C      -0.02323696     -0.52942137     -0.22039786
N      -1.06317243     -1.10085157      0.63626829
C       0.92018857      0.43388646      0.39506326
O       0.74796442      0.96482374      1.46834539
C       2.12621190      0.73005892     -0.39882476
N       3.05998834      0.95545318     -1.03324627
H      -2.03565524     -0.42063826     -1.16052032
H      -1.68235984      0.91563143      0.05040340
H       0.37881672     -1.17516070     -0.98991522
H      -0.97198968     -0.69417099      1.56512589
