16
b3lypvtz=-227760.40215376
C      -2.34691312     -0.22109013      0.06736570
C      -0.95506438      0.34685032      0.09041582
N      -0.63799574      1.54257654     -0.20638940
C       0.15274998     -0.64272667      0.45488559
O       0.27478628     -1.58605785     -0.61082583
C       1.49642704      0.02399078      0.73303954
O       2.01468450      0.62257776     -0.44663681
H      -2.65288913     -0.50685850      1.07743471
H      -2.36518569     -1.12735423     -0.53976601
H      -3.06775255      0.49430523     -0.32769581
H      -1.45317314      2.09650292     -0.46933294
H      -0.15832978     -1.21256491      1.33576437
H       0.87142545     -1.17092572     -1.25031850
H       2.21193416     -0.73926215      1.04047818
H       1.39516667      0.75252699      1.54382910
H       1.39645644      1.34325661     -0.64825571
