12
b3lypvtz=-226248.76206456
N       2.88365980     -0.51745071      0.00020777
C       1.72731618      0.17178572     -0.00003682
C       0.47521518     -0.34786471     -0.00009937
C      -0.66695894      0.53191328     -0.00011962
O      -0.65294750      1.75798974     -0.00001132
C      -2.04609346     -0.13747196     -0.00007683
O      -2.23248020     -1.32633924     -0.00002241
H       2.89225319     -1.52236229     -0.00045707
H       3.76754119     -0.04460319     -0.00068696
H       1.83253249      1.25100026     -0.00002429
H       0.29198562     -1.41394785     -0.00012855
H      -2.87210756      0.60013396      0.00006845
