15
b3lypvtz=-193582.25455142
O       1.86000786      1.66935536      1.08895100
C       1.80858728      0.99336549      0.09111464
C       0.88298969     -0.16017603     -0.14264165
C      -0.24227875     -0.52964364      0.86166490
C      -0.92669628     -1.29079270     -0.31068368
C      -0.47703471      0.07088177     -0.90639908
C      -1.02320264      0.73305644      0.38776944
H       2.49879020      1.19806816     -0.75682798
H       1.46228773     -0.99764464     -0.54527834
H      -0.10471491     -0.87285742      1.88393928
H      -0.42308647     -2.18308028     -0.68327751
H      -2.00225592     -1.44126333     -0.22351725
H      -0.58876203      0.41487573     -1.93296124
H      -0.61972685      1.69936135      0.67500081
H      -2.10500418      0.69649374      0.51324667
