19
b3lypvtz=-192751.92988656
C      -1.84003973      1.28094127      0.43002222
C      -1.42385993      0.02120204     -0.33086292
C      -2.37385782     -1.14483667     -0.04914719
C       0.02335370     -0.36846375     -0.00892245
N       0.95798049      0.66646747     -0.42074931
C       2.19743880      0.47530613     -0.22669009
N       2.80872241     -0.59886741      0.38298276
H      -1.84963846      1.09681541      1.50864823
H      -2.84231422      1.60252639      0.13989545
H      -1.14483639      2.09577938      0.23226155
H      -1.45592036      0.24587843     -1.40178218
H      -2.35702424     -1.41815769      1.00980586
H      -3.40255420     -0.88312887     -0.30285696
H      -2.10446501     -2.03256388     -0.62611027
H       0.25110335     -1.32082686     -0.51341573
H       0.10676710     -0.56213725      1.07230765
H       2.89767591      1.25219215     -0.53001375
H       2.29008689     -1.45277732      0.49875252
H       3.79845869     -0.71291497      0.25100960
