14
b3lypvtz=-226992.93154236
C       1.77839511      0.17372796      0.41335878
C       0.71059953     -0.11601275     -0.60652862
C      -0.58436464     -0.82402771     -0.13657606
C      -1.23634596      0.51090889     -0.42637159
N      -2.38760637      0.95942106     -0.22962272
O      -0.09828275      1.08842084     -0.93240696
O      -0.60117139     -1.25795037      1.20166157
H       2.32500094     -0.74168445      0.64607767
H       1.34651829      0.55454418      1.33686839
H       2.48386106      0.90536648      0.01857583
H       1.12335082     -0.51632261     -1.53175894
H      -0.91030953     -1.61592117     -0.81714050
H      -2.47811387      1.93753123     -0.50070848
H      -1.47153124     -1.05800156      1.56457162
