13
b3lypvtz=-239484.27207728
O       0.39065147      0.52547290     -1.24433929
C      -0.18826568      0.02135737     -0.26653432
C       0.45971289     -0.16311661      1.00392618
C       1.75261269      0.21786667      1.17193698
O       2.50054726      0.76591683      0.23348227
C      -1.63144141     -0.40955226     -0.43795519
O      -2.10505226     -0.15955550     -1.73099913
H      -0.07705115     -0.60475678      1.82997872
H       2.27142925      0.09344739      2.11608910
H       1.92814908      0.83034515     -0.57720452
H      -1.69972219     -1.47885035     -0.19639461
H      -2.23749354      0.11993132      0.30951420
H      -1.36397640      0.24159388     -2.21150038
