14
b3lypvtz=-226989.89002904
C       2.47030738     -0.03021819      0.88939849
C       1.30444151      0.29319278      0.34095436
O       0.96399380      1.54158386     -0.02481786
O       0.35528506     -0.70563538      0.14355522
C      -0.94233135     -0.39499206     -0.17814903
C      -1.94960589     -0.73599706      0.61693814
N      -1.04313766      0.29517732     -1.40658560
H       3.23108508      0.72377714      1.00249636
H       2.64729523     -1.03502165      1.23328117
H       0.24364570      1.49939452     -0.68344399
H      -2.97444610     -0.60422501      0.30397055
H      -1.75241333     -1.15359813      1.59061753
H      -0.55531339     -0.18211262     -2.15657967
H      -1.99890604      0.48867449     -1.67163567
