16
b3lypvtz=-204433.14110737
N      -3.24519690      0.08144619     -0.20558821
C      -1.98154237     -0.00643750      0.36637785
C      -0.81055215     -0.01952374     -0.27836058
C       0.51040456     -0.01018985      0.40327658
C       1.59343101     -1.03056082     -0.02946358
O       2.58331639      0.01069803     -0.18048685
C       1.57663377      1.03437161     -0.01633895
H      -3.29308103     -0.13758758     -1.18911792
H      -3.98630810     -0.35942886      0.31485454
H      -1.99644924     -0.00203927      1.45164827
H      -0.80227397     -0.02293982     -1.36633806
H       0.37459251     -0.01675823      1.48533009
H       1.37919981     -1.52723093     -0.98189444
H       1.89211037     -1.77901519      0.70784350
H       1.35445363      1.53939296     -0.96225560
H       1.86293670      1.77761399      0.73092335
