14
b3lypvtz=-203702.37049423
O      -2.68089000     -0.37394964      0.04733354
C      -1.79860414      0.46866439      0.02230958
C      -0.38048804      0.20168020     -0.01116254
C       0.17924106     -1.03163242     -0.04004808
N       1.53936994     -0.99851961     -0.12469810
C       2.00193154      0.37394675      0.15795128
C       0.73835373      1.22902569     -0.10695987
H      -2.06633506      1.54682548      0.03558547
H      -0.35101681     -1.97238886     -0.03330229
H       2.08580233     -1.78633650      0.18145023
H       2.32010660      0.45621558      1.20262170
H       2.84317063      0.64121487     -0.47923157
H       0.77765732      1.67571228     -1.10541664
H       0.64751689      2.04589477      0.60889729
