14
b3lypvtz=-203684.01289283
C       0.31972808      1.81504009      0.00747797
C       0.07788155      0.31566975      0.02526432
C       1.35613190     -0.41788375     -0.00480814
N       2.35336455     -0.99198190     -0.01010059
C      -0.92483004     -0.24805665      1.07068180
C      -1.69096963     -0.78234461     -0.14835501
O      -0.78081269     -0.11322616     -1.06184512
H       0.84582087      2.09999131     -0.90342069
H       0.92167446      2.11752782      0.86554724
H      -0.63701403      2.33492872      0.03839130
H      -1.43601961      0.53583711      1.62449720
H      -0.52883308     -0.98763489      1.76014398
H      -2.71435604     -0.43009167     -0.27791005
H      -1.65697627     -1.86560716     -0.27661819
