16
b3lypvtz=-181098.04667197
C       0.88987704     -0.21187005     -0.12951250
C       0.47205172      0.67606111     -1.26047021
C       0.62394971      2.21843404     -1.21695560
C       0.55633866      2.15324805     -2.73605431
C      -0.40737030      1.01501803     -3.06366858
N      -0.94889350      0.54332093     -1.76919467
C       1.02397041      0.70896038     -2.75688915
H       0.80169345     -1.26772393     -0.39583794
H       0.25747855     -0.02795431      0.74254941
H       1.92623020     -0.02236626      0.15450381
H       1.61735349      2.51345489     -0.87748483
H      -0.14955493      2.76144669     -0.67118841
H       0.78076744      2.92692218     -3.45561071
H      -0.95545293      0.96620923     -3.99277134
H      -1.13101713     -0.45353791     -1.87513517
H       1.82417812      0.21737694     -3.29157980
