19
b3lypvtz=-195154.83793402
C      -3.01160878     -0.51543122      0.13866367
C      -1.79816837      0.30916057     -0.29036785
C      -0.47306121     -0.33915714      0.11620958
C       0.77203749      0.41570532     -0.35443120
C       0.98122924      1.77875958      0.32736802
C       2.03682412     -0.40497697     -0.20690910
O       2.10074380     -1.53062196      0.21448714
H      -3.03874418     -0.64102102      1.22325699
H      -3.94500399     -0.03787564     -0.16342544
H      -2.98775221     -1.51216006     -0.30690420
H      -1.81585939      0.44238854     -1.37717665
H      -1.87642946      1.31096250      0.14016856
H      -0.43307484     -0.44578633      1.20461243
H      -0.43158279     -1.35648286     -0.27927809
H       0.69197740      0.60297869     -1.43588775
H       0.16554622      2.46214234      0.09648504
H       1.90862694      2.25029076     -0.00364466
H       1.03006137      1.66459810      1.41214577
H       2.96025362      0.12462381     -0.53031227
