11
b3lypvtz=-238728.63029558
O      -2.29002993      1.27341951     -0.55755554
C      -1.26538437      0.72131801     -0.31563226
C      -0.99866187     -0.65815401      0.26886738
C       0.49988399     -0.71353532      0.30546461
C       0.94741862      0.44465812     -0.17941680
O       2.16451097      0.95777894     -0.38507434
O      -0.03344529      1.32830702     -0.56113386
H      -1.48409324     -0.72715702      1.24616954
H      -1.47014692     -1.40934137     -0.37068777
H       1.10077083     -1.53427479      0.65740250
H       2.82917721      0.31708091     -0.10840346
