14
b3lypvtz=-224577.26061109
C      -1.95292694     -1.05492962     -0.53620994
C      -1.02238617     -0.70479870      0.62216456
N       0.21885360     -0.04577255      0.19750448
C       1.41165438     -0.75845481      0.07938727
O       2.47051845     -0.32175876     -0.27862428
N       0.27687980      1.28486098     -0.08341953
N      -0.81259498      1.87283120      0.03684409
H      -2.85023505     -1.54350616     -0.15325602
H      -2.25630295     -0.15956252     -1.07458414
H      -1.46814191     -1.73629588     -1.23663252
H      -0.72758996     -1.60362909      1.16338834
H      -1.52010998     -0.03692375      1.32325465
H       1.25693413     -1.81219166      0.36734408
H      -0.61571941      2.85151133     -0.18637503
