14
b3lypvtz=-203628.16865356
C      -1.51378538      0.47736096      0.12029026
C      -0.79174911     -0.81686398     -0.17405204
C       0.09857105     -0.07376822     -1.13827932
C       0.67910096     -0.54608635      0.16152741
C       0.74339921      0.88545012      0.64963698
N      -0.29772847      1.22818675     -0.40424732
O       1.50814922     -1.61806719      0.43262199
H      -2.36007894      0.65855442     -0.54125931
H      -1.78881348      0.72422878      1.14839924
H      -1.14989122     -1.83397507     -0.24572113
H       0.34067071     -0.17417712     -2.18462353
H       0.45741230      1.12968924      1.67528340
H       1.68322594      1.37807585      0.39669073
H       2.39151721     -1.41860818      0.10373262
