14
b3lypvtz=-203669.93789925
C      -1.48987787      0.01561803      0.61927137
C      -0.73871693      0.56147976     -0.58897427
C      -0.78854351     -0.91221608     -0.33275331
O       0.35670950     -1.61833956      0.06830806
C       1.50771675     -0.87908606      0.20935583
C       1.59236992      0.43585391      0.00974616
N       0.52410574      1.22678843     -0.44232209
H      -2.57167327      0.03698661      0.62653217
H      -1.01608487      0.15904195      1.58144913
H      -1.33196195      0.92647922     -1.41846337
H      -1.38907070     -1.52516432     -0.99013380
H       2.34997312     -1.49022825      0.48907086
H       2.53677197      0.94136328      0.14446511
H       0.45828211      2.12142307      0.02444815
