14
b3lypvtz=-203678.92876714
C       0.16270920      1.33205878     -0.47979448
C      -0.87224019      0.30525239     -0.08359897
C       0.48077745      0.35670093      0.60923145
C       1.13312755     -0.90659451      0.14663182
N       0.45323503     -1.64065128     -0.63688909
C      -0.86853566     -1.00914241     -0.84828253
O       0.73858874      0.85960502      1.88377451
H       0.66930001      1.24363765     -1.43275831
H      -0.02525192      2.34415426     -0.14771524
H      -1.76504202      0.65126091      0.41689115
H       2.13578012     -1.18621438      0.45962327
H      -1.64061668     -1.70027009     -0.50158935
H      -1.02053364     -0.87684503     -1.92225241
H       0.41870201      0.22704775      2.53672818
