19
b3lypvtz=-221055.63915927
C       2.68954052      0.12110842      0.04936051
C       1.25813994      0.60430088     -0.18533876
C       0.22478923     -0.51685103     -0.04790113
C      -1.22221414     -0.13311585     -0.41108934
C      -1.80577487      0.92392587      0.50951462
F      -1.82939507      0.44828753      1.82972970
N      -2.15457183     -1.26528193     -0.44808067
H       2.80241230     -0.30275041      1.04940537
H       3.40685171      0.93756820     -0.04760498
H       2.96742208     -0.65253641     -0.66981886
H       1.03335283      1.40638382      0.52221725
H       1.18388270      1.04677473     -1.18428731
H       0.23762246     -0.90704568      0.97368451
H       0.51716978     -1.34736498     -0.69868418
H      -1.21956991      0.31631598     -1.41156605
H      -1.21579485      1.84060579      0.50576125
H      -2.83565110      1.14156048      0.22680676
H      -2.24502721     -1.66094489      0.48155599
H      -1.79318458     -2.00094053     -1.04366466
