12
b3lypvtz=-202909.30448049
C      -1.10131047     -0.20200209     -0.22951688
C       0.34675209     -0.56082633     -0.70604628
C       0.93985757     -0.91557669      0.62624322
N       0.51252179     -0.08599149      1.51280550
C      -0.36838984      0.79425103      0.70977170
C       0.56184996      1.01295974     -0.53980440
O       1.05914914      1.89583877     -1.14562480
H      -1.63814628     -1.00245116      0.27877683
H      -1.71271468      0.27192070     -0.99718556
H       0.57856156     -1.11671379     -1.60684643
H       1.67900638     -1.67876370      0.83529763
H      -0.85713722      1.58735500      1.26212947
