11
b3lypvtz=-236332.04844096
C      -0.70619926     -1.11188878      0.03866815
C      -1.08699761      0.18195757     -0.15199539
N      -0.01141721      1.03776417     -0.13862683
C       1.02303414      0.26014130      0.06062590
N       0.69028226     -1.03697268      0.17674319
O       2.30858570      0.64543559      0.15073419
O      -2.34329514      0.64795435     -0.33819974
H      -1.25011054     -2.03485467      0.08891335
H       1.32726785     -1.79738490      0.33227751
H       2.32340133      1.60386051      0.04027038
H      -2.27455155      1.60398756     -0.44199251
