19
b3lypvtz=-195137.31021389
C      -3.30341200      0.13453771     -0.34249442
C      -2.21117389     -0.45472541      0.12364766
C      -0.94516370      0.26227038      0.47255871
O       0.13973177     -0.39058241     -0.16770496
C       1.43911703     -0.01629409      0.29336161
C       2.39570219     -1.08987119     -0.20186558
C       1.83689116      1.37726482     -0.19035969
H      -4.20549101     -0.42521655     -0.55166652
H      -3.33671897      1.20166522     -0.52978547
H      -2.19546703     -1.52720977      0.28927107
H      -1.01631498      1.31530745      0.17626525
H      -0.79317332      0.23622389      1.56298555
H       1.42958243     -0.02216632      1.39317948
H       2.39927643     -1.11686598     -1.29277636
H       2.09069521     -2.07043938      0.16284499
H       3.41153664     -0.88988493      0.14184721
H       1.16019362      2.14544587      0.18493163
H       1.82603292      1.41318753     -1.28123965
H       2.84220748      1.62735015      0.15330549
