13
b3lypvtz=-192829.83540737
C       2.90009107     -0.59667354      0.00004494
C       1.78483129     -0.15042941      0.00004427
C       0.43034267      0.38208792      0.00004279
O       0.23096454      1.58181622      0.00003873
C      -0.65977450     -0.62515015      0.00004569
C      -1.94088174     -0.27257745     -0.74167339
C      -1.94088257     -0.27257264      0.74176099
H       3.89245026     -0.97572315      0.00004517
H      -0.34907838     -1.65942967      0.00004908
H      -1.94137654      0.68546059     -1.24129864
H      -2.43158742     -1.07883927     -1.26762798
H      -2.43158880     -1.07883105      1.26772029
H      -1.94137788      0.68546861      1.24138007
