13
b3lypvtz=-216175.21007321
C      -1.76370669     -0.47461579      1.22014456
C      -1.20268607     -0.29755630      0.02687852
C       0.17374249      0.16805562     -0.19977693
C       0.81339378      1.03571889      0.59221547
C       0.79899954     -0.30773026     -1.48533620
O       0.15847873     -0.54865691     -2.47103315
O       2.14762273     -0.44434229     -1.49434396
H      -1.22397898     -0.30315180      2.14344556
H      -2.78600203     -0.81522043      1.30905142
H      -1.75345150     -0.53626261     -0.87466297
H       0.32808711      1.46565592      1.45772733
H       1.81357851      1.38928894      0.37780009
H       2.49602238     -0.33108297     -0.60200974
