14
b3lypvtz=-226984.7175312
N      -3.05454895      0.54819386     -0.19515450
C      -2.18770388      0.98781624     -0.99085639
O      -0.90966827      0.55121701     -1.22502180
C      -0.53745884     -0.68537128     -0.73509583
C       0.69563404     -0.93184530     -0.31779919
C       1.80791414      0.06117050     -0.23805656
O       2.50169335     -0.16215587      0.99064201
H      -2.72711492     -0.23476337      0.36814740
H      -2.38435717      1.84665189     -1.62454030
H      -1.30512556     -1.44753621     -0.78816262
H       0.93353551     -1.94545817     -0.02107058
H       1.41269963      1.07902776     -0.29729756
H       2.48545262     -0.08335878     -1.09065114
H       3.26904829      0.41651171      1.01511705
