18
b3lypvtz=-205213.23071465
C       3.03777953      0.34882055      0.81300271
C       1.74726147      0.55962835      0.08401184
C       0.78191361     -0.34268386     -0.04805281
C      -0.51547127     -0.11044181     -0.75766396
C      -1.70545320     -0.11346799      0.21639593
N      -2.95614440     -0.10405739     -0.55386487
O      -0.70414874     -1.13487951     -1.72561689
H       3.10242766     -0.65572004      1.23183567
H       3.89264141      0.49657349      0.14722614
H       3.15198416      1.06658647      1.63038322
H       1.61084859      1.53704692     -0.37314242
H       0.90104742     -1.33581075      0.37804819
H      -0.48047980      0.87236653     -1.25281206
H      -1.60526732      0.72191392      0.91842122
H      -1.67606426     -1.03965175      0.79372046
H      -3.18407536      0.83072886     -0.87109884
H      -3.73554874     -0.43232297      0.00048933
H      -1.66325077     -1.16462903     -1.86988639
