16
b3lypvtz=-204433.73545924123
C      -0.14550076      1.75487852     -0.31623382
N      -0.05691443      0.30337756     -0.11044428
C       0.98401886     -0.05486167      0.81485649
C       1.98820954     -0.82147095      0.39074877
O       2.09609072     -1.29284448     -0.87182433
C      -1.32198413     -0.25057971      0.27846326
C      -1.94072628     -1.20226139     -0.40204864
H      -0.88645055      1.96883671     -1.08625311
H       0.82318799      2.12899356     -0.64401544
H      -0.43183806      2.29204401      0.60038574
H       1.31607414     -0.94969527     -1.34090904
H       0.94092951      0.30184647      1.84063644
H       2.80425999     -1.12758327      1.03023351
H      -1.76612175      0.16084762      1.18823682
H      -2.88889719     -1.59792679     -0.06436496
H      -1.51433760     -1.61360094     -1.30746742
