13
b3lypvtz=-216147.13603981
O      -0.86055733      1.87977488     -0.59400176
C      -0.21383411      0.69278147     -0.37944653
C      -0.60293162     -0.52172635     -1.16296996
C      -0.64606422     -0.68174616      0.31706202
C       0.77107706     -0.88841946      0.84849455
C       1.06224765      0.55107220      0.35935994
O       1.81892892      1.39971699      0.75896237
H      -0.54022903      2.51354803      0.06136253
H       0.12705536     -1.06674477     -1.75227738
H      -1.56167197     -0.39114859     -1.64933553
H      -1.55626018     -0.84576558      0.87242175
H       1.34038877     -1.69670293      0.38791375
H       0.86175070     -0.94463973      1.93225425
