16
b3lypvtz=-204475.15113472
C      -1.23824420      1.09553214      0.70266264
C      -0.74397233     -0.16132761      0.04270795
C      -1.79774196     -1.18825141     -0.26488420
C       0.53230511     -0.40154782     -0.27056979
N       1.61492799      0.45666564     -0.04488816
C       2.90369524      0.15410926     -0.38802607
O       3.26521033     -0.87205316     -0.91931084
H      -0.45608547      1.82441478      0.91542733
H      -1.73296854      0.86489791      1.65086813
H      -1.98356926      1.59367254      0.07548676
H      -2.56516431     -0.77929614     -0.92969471
H      -1.37429677     -2.07149411     -0.74180346
H      -2.31338655     -1.50937229      0.64576758
H       0.83489989     -1.32338378     -0.74494822
H       1.45570110      1.34864803      0.39239280
H       3.59868972      0.96888602     -0.12118775
