12
b3lypvtz=-249714.64917812
C       1.38925036      0.18594762      0.44728813
C       0.33464297     -0.20142185     -0.28900240
N      -0.85806344     -0.55732767      0.27667406
N      -1.77010646     -0.90072150     -0.51117202
N      -2.88782547     -1.31581682      0.13994673
F       0.46610711     -0.22736432     -1.64319409
N       2.58492580      0.63529089     -0.07151200
H       1.27442948      0.20144309      1.51986226
H      -2.96607958     -0.99181780      1.10007203
H      -3.70957748     -1.19406713     -0.42990829
H       3.39752736      0.49769953      0.50553991
H       2.74476933      0.42595245     -1.04459431
