15
b3lypvtz=-193592.89501622
C       1.89955411      0.01093393     -0.11214779
C       0.47636102     -0.51012395     -0.13725191
C      -0.65297227      0.27553633     -0.89807129
C      -1.66008384     -0.53215094     -0.01407403
C      -0.53931014     -0.13038273      1.00124342
C      -0.60720435      1.23173687      0.30011621
O      -0.62515006      2.39709931      0.55040243
H       1.94371851      1.07797330      0.11189946
H       2.38442879     -0.14861023     -1.07727984
H       2.48856532     -0.51415728      0.64241278
H       0.44004764     -1.57746947     -0.36294017
H      -0.71864211      0.49189390     -1.96015667
H      -1.70041104     -1.59699247     -0.23933806
H      -2.65062371     -0.10818095      0.13572499
H      -0.47827787     -0.36710561      2.05926046
