16
b3lypvtz=-202051.7287609
N      -3.52603697     -1.45954856      0.06473105
C      -2.81589433     -0.61894754     -0.26937716
C      -1.91450440      0.47050851     -0.67106049
N      -0.55004013      0.00812195     -0.84258531
C       0.15096420     -0.30663960      0.39559419
C       1.62877123     -0.53360405      0.10354500
N       2.21758931      0.67707954     -0.48514133
H      -2.02631161      1.27217771      0.07823299
H      -2.27797229      0.86628302     -1.62120386
H      -0.00914296      0.70471674     -1.34249531
H       0.04774194      0.49528562      1.14862633
H      -0.27703195     -1.21034135      0.83552068
H       1.71709778     -1.33804578     -0.62796694
H       2.12764993     -0.86576811      1.02197889
H       2.40739248      1.36854741      0.23115234
H       3.09982778      0.47017449     -0.93515107
