12
b3lypvtz=-200517.49325409
C       2.42480587      0.30854846      0.00000111
N       1.54735823     -0.61084014      0.00000152
N       0.23084365     -0.22938178      0.00000103
C      -0.78858774     -1.13006633     -0.00000031
C      -1.95053659     -0.40062268     -0.00000079
C      -1.52207195      0.94594621      0.00000255
N      -0.20082299      1.04805126     -0.00000378
H       3.45741743     -0.01486024     -0.00000270
H       2.18267474      1.36642819     -0.00000312
H      -0.58360981     -2.18533296      0.00000221
H      -2.95810908     -0.77623586     -0.00000376
H      -2.12473177      1.83998186      0.00000805
