17
b3lypvtz=-217709.38862725
C      -1.28416158      0.32326842      1.15725033
C      -0.21564280      0.05155223      0.10310688
C      -0.00581342      1.27273153     -0.78971079
C      -0.54750882     -1.20434643     -0.69974875
O       0.99634209     -0.18442893      0.92371308
C       2.17957259     -0.46502976      0.37488386
O       2.45029808     -0.56600179     -0.79158108
H      -1.39677409     -0.53424916      1.82062932
H      -2.24313391      0.51664568      0.67566987
H      -1.01798476      1.19163763      1.75983472
H       0.28712828      2.13660337     -0.19168956
H       0.75699709      1.08865861     -1.54181166
H      -0.94216622      1.51408392     -1.29524068
H       0.21223537     -1.40818978     -1.44973005
H      -1.50606630     -1.06744170     -1.20276314
H      -0.63362788     -2.06758583     -0.03858262
H       2.91050630     -0.59780801      1.18577028
