12
b3lypvtz=-285469.39777362
C      -1.39840248      1.41736918     -0.00000058
C      -0.89447035      0.19042321     -0.00000004
C      -1.70730632     -1.07190856      0.00000019
C       0.59878429     -0.01370100      0.00000046
F       1.29969501      1.13278048      0.00000068
F       0.99537881     -0.72072139      1.08441032
F       0.99537951     -0.72072138     -1.08440914
H      -2.46875772      1.57391247     -0.00000104
H      -0.76736752      2.29358214     -0.00000067
H      -1.48436503     -1.68063465      0.87829461
H      -2.77061247     -0.84050995     -0.00000145
H      -1.48436273     -1.68063654     -0.87829233
