10
b3lypvtz=-223083.93649433
O       1.26529140     -0.27665181      0.73399748
C       2.20438639     -0.06311297      0.02293406
N       2.85653612     -1.05766500     -0.71959944
C       3.94156218     -0.91322801     -1.56421920
N       4.27538457     -2.05085588     -2.08093901
N       3.39398844     -3.01121303     -1.57753164
C       2.56998702     -2.40853881     -0.78150821
H       2.65677177      0.92846818     -0.12614165
H       4.42345017      0.03264256     -1.74782636
H       1.76354195     -2.85554523     -0.22736604
