16
b3lypvtz=-204457.93314699
C      -2.75670160      0.16840223     -0.03789744
C      -1.51747612      0.52784745     -0.35856325
C      -0.33748618     -0.31806718     -0.01143426
O      -0.45304689     -1.38331847      0.55977728
C       1.04423653      0.22963589     -0.39834621
C       1.41462989      1.38160473      0.54861310
N       2.10292531     -0.76814875     -0.39778182
H      -3.61328006      0.77709211     -0.29525281
H      -2.93261192     -0.75773611      0.49515270
H      -1.33039899      1.45181573     -0.89418929
H       0.96273169      0.63646315     -1.41239169
H       1.50285686      1.01239832      1.57261709
H       2.37622197      1.79663478      0.25039661
H       0.66866423      2.17705193      0.54090231
H       2.09815222     -1.25235624      0.49472762
H       1.90268107     -1.48332259     -1.08826693
