15
b3lypvtz=-191148.5009432
C       0.62800261      1.51536006     -0.47586003
C      -0.64753749      1.44569336      0.48518907
C      -0.67790315     -0.06179005      0.06016900
C       0.80171560      0.00108117     -0.08179944
C       0.67662597     -1.54861565     -0.26137429
N       1.19920743     -2.55741677     -0.79244248
N      -0.53260952     -1.47785896      0.52787541
H       1.42976093      2.19442952     -0.19518285
H       0.33908096      1.68361231     -1.51116068
H      -0.35834877      1.61032760      1.52156493
H      -1.51008641      2.05906512      0.22864710
H      -1.14169883     -0.06853977     -0.93233362
H       1.19140223      0.05767245      0.93925282
H       2.04304402     -2.31147639     -1.30225289
H      -1.25325556     -2.16234399      0.32970791
