14
b3lypvtz=-224565.38289214278
C      -1.36028777     -0.44882989      0.46811927
C      -1.59823489      0.85189920     -0.24326568
N      -0.75499196      1.51909024     -0.92773908
O       0.55397103      1.02796226     -0.98962974
C       0.90851633      0.10778488      0.06587729
N      -0.01876356     -0.97420349      0.22295284
N       2.18936973     -0.40869357     -0.32336620
H      -2.09860584     -1.18068592      0.13396657
H      -1.53149823     -0.31920692      1.54325525
H      -2.59228754      1.28877539     -0.22416234
H       0.89150464      0.69657404      0.99615757
H       0.00873493     -1.53298721     -0.62304293
H       2.57187968     -0.97658675      0.42208090
H       2.83069344      0.34910776     -0.52120371
