18
b3lypvtz=-181900.88506018
C      -3.58546608     -0.36089841      0.28045327
C      -2.36566622     -0.50774079     -0.22131862
C      -1.37378969      0.60494846     -0.43473447
C      -0.10100660      0.40738961      0.34388406
C       1.10920636      0.31015612     -0.21545776
N       2.32741052      0.23092093      0.44387509
C       3.40734604     -0.52621635     -0.16738524
H      -4.25058477     -1.20372315      0.41650079
H      -3.96438396      0.61225206      0.57209926
H      -2.01802660     -1.50058714     -0.49427334
H      -1.84883502      1.55508116     -0.16680116
H      -1.12858482      0.66936588     -1.50053907
H      -0.19685747      0.35392551      1.42512001
H       1.20744243      0.34598888     -1.29720507
H       2.24049482      0.08126486      1.43838899
H       4.33035080     -0.35506185      0.38604011
H       3.22313061     -1.60806829     -0.20951645
H       3.56401364     -0.17292050     -1.18768939
