19
b3lypvtz=-195136.99964063
C       3.27168469     -0.26827191     -0.19999262
C       1.83556658     -0.55528094      0.23751005
C       0.88992563      0.62361463     -0.01413734
C      -0.51843421      0.35329516      0.44645210
O      -1.54377062      1.23246544     -0.04044285
C      -1.57026758     -0.14529989     -0.44517503
C      -2.73463564     -0.96615839      0.03374496
H       3.92338863     -1.12298966     -0.01230841
H       3.68351586      0.58836330      0.33793157
H       3.32015335     -0.04125697     -1.26724280
H       1.82369538     -0.80959908      1.30176563
H       1.46123164     -1.43737846     -0.29009358
H       0.87107454      0.87268985     -1.07842114
H       1.26572358      1.51089628      0.50596541
H      -0.62112413      0.11852911      1.50541672
H      -1.29886128     -0.28900134     -1.48979377
H      -3.63583695     -0.72163638     -0.53204316
H      -2.93318609     -0.77718883      1.08878817
H      -2.53389238     -2.03177892     -0.09890690
