16
b3lypvtz=-181132.44145769
C       2.35261102     -0.46065167     -0.40667680
C       1.29289648     -0.92595237      0.24250676
C       0.00377680     -0.17151434      0.50534804
C       0.15532487      1.32815025      0.40791248
C      -0.66032036      2.16446195     -0.22119237
C      -1.06775370     -0.71589928     -0.42451296
N      -2.13682355     -1.31584705     -0.11469910
H       3.22198676     -1.08287657     -0.57286978
H       2.39309242      0.54915016     -0.79492916
H       1.29754892     -1.95130692      0.59821577
H      -0.30752648     -0.40858406      1.53126404
H       1.01491917      1.72710084      0.93744119
H      -0.47965202      3.23116445     -0.20808509
H      -1.53668127      1.82806661     -0.76062873
H      -0.85675174     -0.57466955     -1.48689102
H      -2.23309631     -1.39481044      0.90066075
