17
b3lypvtz=-215286.11890138
C       2.21725077     -0.85870731      0.16665402
C       1.10108487      0.13480851      0.02528518
N       1.42390735      1.53623473      0.03087992
C      -0.17867399     -0.22555827     -0.13112899
O      -0.54084873     -1.54092931     -0.23092886
C      -1.33723083      0.73350321     -0.26118270
N      -2.53400891      0.11596721      0.34488690
H       2.90630715     -0.80836484     -0.68358131
H       1.83954526     -1.87642812      0.23946146
H       2.80941862     -0.64735300      1.06415672
H       1.72997274      1.85581311     -0.88224763
H       2.18629814      1.72365689      0.67175546
H      -1.50537377     -1.53962528     -0.08622330
H      -1.56303838      0.88874999     -1.32084592
H      -1.05642107      1.69865704      0.15982353
H      -3.38266423      0.51569491     -0.03158941
H      -2.54715000      0.26277154      1.34713394
