17
b3lypvtz=-212866.09535733
N       3.53526015     -0.46022500     -0.69774939
C       2.33847731     -0.53384755      0.00135174
N       1.27759964      0.02395612     -0.41710859
N       0.08059330     -0.27731710      0.23236777
C      -0.84770489      0.85022927      0.24305028
C      -2.23269653      0.38154965      0.69274289
N      -2.88132285     -0.60581818     -0.16846510
H       3.52843684      0.23843990     -1.42745456
H       4.36228044     -0.41273861     -0.12256445
H       2.37071583     -1.16994840      0.89132253
H       0.23911007     -0.62142443      1.17963734
H      -0.50014262      1.67461735      0.88486406
H      -0.89246791      1.23319369     -0.77774203
H      -2.88730050      1.25109200      0.78195455
H      -2.15779459     -0.04303614      1.70018007
H      -2.21784888     -1.34522685     -0.37417501
H      -3.11519481     -0.18369571     -1.06041208
