18
b3lypvtz=-181895.79213681
C       2.24238670      0.14139328     -0.13450555
C       0.84660489     -0.25774657      0.31186143
C       0.01212164     -1.24723164     -0.55939801
C      -1.24786270     -0.36505942     -0.31930155
N      -2.05739720     -0.88694887      0.78587150
C      -0.30032329      0.72735095      0.15351412
C      -0.40421662      2.04542414      0.19687106
H       2.64856349      0.93435272      0.49705150
H       2.23628912      0.50470362     -1.16413913
H       2.92762606     -0.70735910     -0.07785174
H       0.87149987     -0.62322875      1.34147270
H       0.32588317     -1.22983491     -1.60362836
H      -0.05591519     -2.27766840     -0.21339020
H      -1.82763164     -0.11785532     -1.21678200
H      -2.60494460     -1.68142067      0.47295692
H      -2.71220577     -0.18176025      1.10412965
H       0.42772458      2.67477043      0.48928838
H      -1.32820251      2.54821875     -0.06422073
