18
b3lypvtz=-181901.16546279
C       3.17732148      0.58304941      0.00696774
C       2.16604685     -0.53438673     -0.23790078
N       0.93355907     -0.28538634      0.48948400
C      -0.14573718     -0.20128319     -0.16200580
C      -1.44598012      0.05282204      0.47923585
C      -2.48489916      0.87833513     -0.25424918
C      -2.69226651     -0.59216885     -0.09494654
H       3.35558592      0.70790402      1.07520324
H       2.80956204      1.53196282     -0.38674206
H       4.12714382      0.35572758     -0.48002757
H       1.98787414     -0.65502887     -1.31734042
H       2.58107031     -1.47706373      0.13072591
H      -0.16769224     -0.31799260     -1.25881624
H      -1.39541530      0.16209677      1.55341228
H      -3.08363843      1.55560725      0.33800908
H      -2.22398296      1.25271067     -1.23504073
H      -2.57250114     -1.22075906     -0.96713125
H      -3.43564560     -0.93997532      0.60815447
