8
b3lypvtz=-199003.2472561
C       1.38104618     -0.10862296     -0.26900589
N       2.44410186     -0.17924399     -0.69590296
C       0.02983060     -0.02115420      0.31120889
C      -0.81801637     -1.14272782     -0.12843707
N      -1.48065059     -2.02480255     -0.44494418
C      -0.59963768      1.27735952      0.01509422
N      -1.09090185      2.29440600     -0.18882703
H       0.13422784     -0.09521399      1.40081401
