11
b3lypvtz=-210572.3325929
C      -1.83954895     -0.50597457     -0.12707242
C      -0.54496518     -0.19014768     -0.03949390
N      -0.08442761      1.14284594      0.04563024
N       1.18190980      1.52519549      0.13473738
N       2.09556637      0.64546278      0.14795521
C       1.67780691     -0.69551108      0.06480837
N       0.48186235     -1.13733806     -0.02292895
H      -2.12141392     -1.54410409     -0.18908339
H      -2.61150970      0.24917012     -0.13748019
H      -0.73404603      1.91355564      0.04261299
H       2.49876595     -1.40315448      0.08031463
