17
b3lypvtz=-217675.09514665
C       3.24126406     -0.45112335      0.20067283
C       1.72974448     -0.58552931      0.01890600
C       1.07415132      0.74065393     -0.34529838
O      -0.32850846      0.62135765     -0.57274136
C      -1.10066897      0.55437831      0.54882331
C      -2.28828978     -0.04464833      0.57843503
O      -2.81586977     -0.70026777     -0.50461021
H       3.48678432      0.24999091      1.00156545
H       3.72126778     -0.09093209     -0.71203259
H       3.69322722     -1.41076424      0.45341019
H       1.27432567     -0.96894863      0.93545898
H       1.50448870     -1.30876638     -0.76811290
H       1.48691028      1.12661318     -1.27844197
H       1.25917514      1.48883095      0.43679693
H      -0.73356699      1.06388727      1.43349909
H      -2.88344251     -0.00076812      1.48093307
H      -3.66840849     -1.06866599     -0.26302046
