16
b3lypvtz=-227751.19091081
C      -1.21725099     -0.76577440      0.24233726
C      -2.19390416      0.40526496      0.17529604
O      -1.77620890      1.50598041      0.96874180
N       0.06365928     -0.38148532     -0.32284335
C       1.10772140     -0.45307777      0.38233751
C       2.43087878     -0.04094996     -0.19295386
O       2.32553614      0.43545064     -1.50897845
H      -1.62280368     -1.58788790     -0.35489261
H      -1.12191898     -1.10548520      1.28173345
H      -2.33579832      0.70199276     -0.86938067
H      -3.15919433      0.09104685      0.57320331
H      -0.97946307      1.87183841      0.57108925
H       1.10441400     -0.81842920      1.41648555
H       3.11015991     -0.90470946     -0.14346191
H       2.86943866      0.72897396      0.45662925
H       1.39473425      0.31725120     -1.75573795
