15
b3lypvtz=-191232.53099413
N       2.37944618     -0.12512024     -0.10873191
C       1.11384104      0.01366539      0.02129453
C       0.36184960      1.25892756     -0.01802353
C      -0.98901844      1.26282478      0.05242163
N      -1.74886492      0.12623871      0.10307085
C      -1.11440446     -1.12302028     -0.30781079
C       0.27692222     -1.21976080      0.31329339
H       2.82270716      0.78339328     -0.25675114
H       0.89479904      2.19912506     -0.05472576
H      -1.54404025      2.19206004      0.09087391
H      -2.72488976      0.22979587     -0.11653040
H      -1.02835167     -1.16090578     -1.40237859
H      -1.73889462     -1.95818175      0.00891654
H       0.80159676     -2.10349127     -0.04495189
H       0.17909913     -1.31024658      1.39986316
