13
b3lypvtz=-237022.29833263
O       3.36363926      0.60846789      1.31896784
N       2.62640838     -0.28817049      0.59962149
N       1.42466593      0.00218920      0.58961938
C       0.63939605     -0.88922816     -0.15806106
C      -0.68606838     -0.75674578     -0.22615460
C      -1.51249052      0.27585191      0.46677027
O      -2.53485447      0.68955218     -0.44002374
H       2.72789712      1.27401001      1.64948558
H       1.16233666     -1.68668588     -0.67441642
H      -1.24210322     -1.46863210     -0.82427758
H      -0.89100719      1.11483525      0.78732612
H      -1.95742595     -0.17382584      1.36585935
H      -3.12039367      1.29838180      0.01888338
