19
b3lypvtz=-192736.36079293
C      -1.54159117      1.84828998      0.26719766
N      -0.87878852      1.07704151     -0.47736185
C       0.06404649      0.15037874      0.12812305
C      -0.26588688     -1.27837181     -0.31894214
C      -1.61878613     -1.78978102      0.17292439
C       1.48741778      0.58546706     -0.30124187
N       2.60391293     -0.15584881      0.27230902
H      -1.46238817      1.84710485      1.36225325
H      -2.23482857      2.55945683     -0.17765331
H       0.01223426      0.20063749      1.23003634
H       0.52216263     -1.94171736      0.04626841
H      -0.23156584     -1.30894489     -1.41140004
H      -2.43696526     -1.18306657     -0.21574520
H      -1.78604889     -2.81913088     -0.14777777
H      -1.67647180     -1.77013222      1.26395112
H       1.60995011      1.63844385     -0.03886432
H       1.55343495      0.52842526     -1.38962722
H       2.60089263     -1.12404879     -0.02060150
H       2.57200846     -0.14572024      1.28487797
