15
b3lypvtz=-240254.97341493
C       2.56903037      0.34297989      0.68955249
C       1.87409536     -0.29243107     -0.49850332
O       0.58341556     -0.83595826     -0.13054294
C      -0.44633023      0.01536650     -0.16052392
O      -0.40819302      1.17783892     -0.47935704
O      -1.54149405     -0.65221716      0.22307733
C      -2.74975207      0.12305250      0.24174468
H       2.01750712      1.21390646      1.04132291
H       3.56934305      0.66874504      0.39811110
H       2.66663443     -0.37004002      1.50855535
H       1.73622508      0.42288181     -1.30723131
H       2.42689707     -1.15373438     -0.86843730
H      -2.65823396      0.95887523      0.93363395
H      -2.97553315      0.50537847     -0.75242930
H      -3.52625455     -0.56061193      0.57157134
