18
b3lypvtz=-181917.57961715
C       2.54484488     -0.61131960     -0.15072128
C       1.12567691     -0.17546431      0.01508649
C       0.05917140     -0.94680295      0.21425227
C      -1.21298244     -0.15860626      0.39789096
N      -2.32799973     -0.68980009     -0.40439339
C      -0.79992488      1.25470774     -0.07178846
C       0.74047517      1.28794309      0.01666989
H       2.95169389     -0.26325094     -1.10483250
H       3.18114546     -0.18609801      0.63155871
H       2.64205348     -1.69626415     -0.11427658
H       0.08469453     -2.02763427      0.28782575
H      -1.46535429     -0.13367298      1.47136408
H      -2.55444414     -1.63147507     -0.10176292
H      -3.16286020     -0.13676572     -0.23891244
H      -1.27880516      2.04941265      0.50106069
H      -1.11287056      1.35361819     -1.11238075
H       1.19916439      1.84104376     -0.80739205
H       1.08791628      1.76956690      0.93830953
