18
b3lypvtz=-181894.28751342
C       3.54780754      0.20144828     -0.19568394
C       2.15567984     -0.17344792      0.01019948
C       1.00396869     -0.46648485      0.18523080
C      -0.39356757     -0.83410851      0.38200616
C      -1.40467155      0.09034610     -0.32654370
C      -2.81548953     -0.50608637     -0.24902784
N      -1.29590403      1.44359328      0.22266749
H       3.62948950      1.24334654     -0.51203873
H       4.01771019     -0.41725803     -0.96290988
H       4.12694820      0.08766764      0.72300237
H      -0.55153470     -1.85824200      0.03163859
H      -0.62482392     -0.84365597      1.45406587
H      -1.10928156      0.15497029     -1.37724729
H      -3.13274134     -0.61423938      0.79211240
H      -3.53478559      0.14410652     -0.75018906
H      -2.86827223     -1.49023397     -0.72077820
H      -1.59230353      1.45351075      1.19381669
H      -1.91123441      2.07720060     -0.27440922
