14
b3lypvtz=-203671.61830687
C       3.24079360      0.30818239      0.17673294
C       2.11965778      0.31845682     -0.26816440
C       0.79634740      0.32524837     -0.76116511
C      -0.25121643     -0.18749713     -0.07109209
C      -1.64093810     -0.19282934     -0.65283996
O      -2.62383423      0.26565215      0.27787089
N      -0.14984869     -0.79540402      1.15201320
H       4.23469904      0.30056946      0.54754351
H       0.61755744      0.74502075     -1.74172349
H      -1.93428779     -1.21757288     -0.88992569
H      -1.65779541      0.38943227     -1.57643197
H      -2.47259517      1.20344548      0.43720846
H       0.71002659     -0.66267279      1.66029490
H      -0.98856600     -0.80003155      1.70967881
