14
b3lypvtz=-201263.32097588
C       2.94536976      0.64924636      0.14724535
C       2.02902931     -0.29222260     -0.07105754
N       0.65799340     -0.07821682     -0.06124140
N      -0.16233823     -1.13004356     -0.11589123
C      -1.43756870     -0.99914904      0.03151443
C      -2.23452747      0.21797795      0.23830874
N      -2.03485863      1.40479085     -0.18945258
H       2.68150004      1.67399863      0.37485370
H       3.99394245      0.40254047      0.09908101
H       2.28468366     -1.31839721     -0.29616975
H       0.31283954      0.82067193      0.25725266
H      -1.98296561     -1.93644767      0.02685032
H      -3.14281187      0.06060596      0.82568762
H      -1.21685166      1.45506275     -0.79780632
