14
b3lypvtz=-203702.89507333
N      -1.99732476      0.46768522      0.14293539
C      -0.71575888      0.07464858     -0.40690474
C       0.06970290     -1.10372212      0.22831865
C       1.50452520     -0.65384656      0.18219339
C       1.63569275      0.62867468     -0.16664382
C       0.30729477      1.23315702     -0.40304190
O       0.05443606      2.40526435     -0.54529700
H      -2.63644405     -0.31498559      0.19317869
H      -1.90199863      0.85996005      1.07140614
H      -0.86844326     -0.16266874     -1.46619742
H      -0.08239475     -2.05300675     -0.29107989
H      -0.24833710     -1.26047690      1.26416838
H       2.32580542     -1.31512831      0.42832803
H       2.55334432      1.19444507     -0.23126391
