19
b3lypvtz=-218444.14947901
C       1.67311276     -1.59769848      0.22033479
O       0.65801604     -0.76454177     -0.30884374
C       0.57951645      0.54723287      0.27464539
C       1.71553422      1.44342032     -0.20943780
C      -0.79340204      1.12011338     -0.06964114
C      -1.96871270      0.25881305      0.39120487
O      -2.15051149     -0.90819171     -0.39475566
H       2.67539670     -1.22939055     -0.01726529
H       1.54922385     -2.57958786     -0.23292666
H       1.58190623     -1.69376198      1.30866328
H       0.64742032      0.43255808      1.36629670
H       2.69294298      1.04405473      0.06135405
H       1.67548610      1.54899079     -1.29466496
H       1.63083859      2.43545748      0.23704511
H      -0.86899522      2.10709488      0.39561258
H      -0.86471892      1.26609282     -1.15119350
H      -2.89540633      0.82965177      0.31104668
H      -1.84004630      0.00147031      1.45335155
H      -1.27162125     -1.29146112     -0.51314224
