16
b3lypvtz=-227786.2469911252
C      -1.58334639     -0.60761968     -0.87923595
C      -0.32763981      0.14218943     -0.44001250
C       0.63571954     -0.78266155      0.32394003
N       1.93053976     -0.12165733      0.57659029
C      -0.69012194      1.42003971      0.34036349
O       0.31332709      1.98954959      1.02441037
O      -1.79160459      1.90395972      0.32305065
H      -2.26272882      0.05882697     -1.40433806
H      -1.32483218     -1.43916565     -1.53683804
H      -2.12083737     -1.00602519     -0.01711169
H       0.19997133      0.49145616     -1.33735430
H       0.74481492     -1.71678368     -0.23612214
H       0.20064650     -1.03938474      1.29193866
H       2.49072972     -0.08577543     -0.26739319
H       1.11643739      1.41155525      0.96300343
H       2.46892486     -0.61850361      1.27510893
