18
b3lypvtz=-181834.58467447
C       1.56771933      0.06467116      0.36093489
C       0.56702631      1.17723299      0.61954181
C       1.11173283      2.66684698      0.33773648
C       0.52360596      2.46808681     -1.10067496
C      -0.47393002      1.55862581     -0.50607867
N      -0.99720377      1.26959647     -1.88910808
C      -0.55771739      2.70599967     -2.20660452
H       2.02070637      0.13333358     -0.62860482
H       1.08342487     -0.91081225      0.43399148
H       2.37243269      0.09171460      1.09868279
H       0.11655624      1.04455626      1.60461334
H       0.58976951      3.40038730      0.94947071
H       2.18779019      2.81814984      0.41727273
H       1.25416403      1.83979582     -1.61168740
H      -1.23055170      2.15494844      0.02400594
H      -2.00441658      1.13704515     -1.92784936
H      -0.22341368      2.85493308     -3.23255690
H      -1.31749519      3.44488829     -1.93638546
