17
b3lypvtz=-194366.83281555
C      -2.41997226     -0.93899956     -0.07202218
C      -2.06413412      0.50813715     -0.23075673
C      -0.90095618      1.11803483     -0.00385210
C       0.39706492      0.56447255      0.44959270
O       0.60171077     -0.85174341      0.53701467
C       1.34646805     -0.12318361     -0.44705871
C       2.83546776     -0.06501215     -0.25992153
H      -2.79644918     -1.34243258     -1.01677417
H      -3.23322910     -1.04745229      0.65173554
H      -1.57833201     -1.54127396      0.25364821
H      -2.87850952      1.14400006     -0.56724204
H      -0.86207654      2.19444692     -0.15055691
H       0.84631911      1.11281010      1.27728137
H       1.00261291     -0.30328569     -1.46295503
H       3.08742189      0.14233295      0.78013370
H       3.27107541      0.71489231     -0.88831583
H       3.29399710     -1.01568260     -0.53968797
