16
b3lypvtz=-204452.88778257
C       2.72993952      0.24250417      0.01236131
C       1.68567394     -0.59069140      0.09441226
C       0.27364176     -0.26809593     -0.02007860
C      -0.61719570     -1.28456160      0.01383166
O      -1.95088289     -1.19801919     -0.10879352
C      -0.14737172      1.16684168     -0.24109540
N      -1.53332754      1.42400919      0.21440017
H       2.62392880      1.30569560     -0.15769426
H       3.74039536     -0.12867902      0.11070312
H       1.89558674     -1.64505757      0.25342033
H      -0.27799553     -2.30607181      0.14659508
H      -2.16658528     -0.23259745     -0.11034030
H      -0.10985156      1.40136137     -1.30976945
H       0.56774710      1.83612420      0.24621521
H      -1.56106395      1.50279626      1.22500291
H      -1.87562605      2.29906250     -0.16222951
