11
b3lypvtz=-233920.07130028
N      -2.13882215      0.26504028     -0.13485668
C      -0.82672677     -0.16186585      0.02622495
N      -0.42418585     -1.36290927      0.31165420
N       0.97942066     -1.35520687      0.26234499
C       1.32924430     -0.14777134     -0.03324702
O       2.57216560      0.34062770     -0.17227784
N       0.24814692      0.67154500     -0.19568061
H       0.24500344      1.61757260     -0.53502942
H      -2.77102089     -0.51030582      0.01280355
H      -2.39398516      1.03563899      0.46978312
H       3.18085988     -0.39226543     -0.01161923
