11
b3lypvtz=-241297.835639
F       2.40642653      0.52638346     -0.00008700
C       1.62370184     -0.62131646      0.00003314
C       0.17338113     -0.24229132      0.00002505
N      -0.74819548     -1.16897941     -0.00002879
O      -1.96495236     -0.48601711      0.00003862
C      -1.71698107      0.83109916      0.00005118
C      -0.38383152      1.06546041      0.00005870
H       1.87363097     -1.20352485      0.88816280
H       1.87359045     -1.20368698     -0.88800001
H      -2.58005787      1.47501772     -0.00003857
H       0.13619338      2.00507940      0.00009888
