13
b3lypvtz=-237069.09812097
C      -2.49481248      0.12809622     -0.00396790
O      -1.33010631     -0.70361424     -0.11841020
C      -0.14890716     -0.03949490     -0.15327471
O      -0.03203367      1.16238164     -0.09645230
N       0.86356837     -0.95963992     -0.26196832
N       2.21509901     -0.76779201     -0.33370613
C       2.72467051      0.39919604     -0.30808550
H      -2.46846275      0.69983749      0.92230037
H      -2.56015391      0.81521759     -0.84594217
H      -3.33909571     -0.55502564     -0.00446437
H       0.60074310     -1.92906437     -0.29423423
H       3.80595662      0.42875624     -0.37193428
H       2.16353436      1.32114587     -0.22996352
