18
b3lypvtz=-181916.87391372
C       2.21590301     -0.48466752      0.15269535
C       0.72241270     -0.44384274      0.09152000
C      -0.09573529     -1.42000440     -0.29457712
C      -1.54495230     -1.01746477     -0.27163041
C      -1.51681431      0.31926489      0.50476950
C      -0.05516171      0.81414069      0.43913191
N       0.10678244      1.82389075     -0.62829502
H       2.66758800      0.24121990     -0.53067471
H       2.57781413     -0.23917256      1.15577797
H       2.59986530     -1.46904265     -0.11492876
H       0.23469103     -2.39644524     -0.62816993
H      -1.92757443     -0.89215079     -1.28958948
H      -2.18411810     -1.76112895      0.21030778
H      -2.20708376      1.05939404      0.09964808
H      -1.79299141      0.14363925      1.54570210
H       0.26456059      1.20348280      1.41695172
H       1.08634443      2.05838670     -0.74594934
H      -0.35585232      2.68457561     -0.35511164
