15
b3lypvtz=-191172.268172
C       1.88806251      0.29538232     -0.12441051
C       0.44335167     -0.03545910      0.06376533
C      -0.29141353     -1.40413456     -0.06366392
C      -1.35937274     -0.41379609      0.46161725
N      -0.27910589      0.08327975      1.42472156
C      -0.80559263      0.59890400     -0.54141255
N      -1.07401858      1.54409906     -1.32420757
H       2.19298466      0.08011379     -1.14956117
H       2.06962589      1.35512906      0.06174387
H       2.50980303     -0.28980794      0.55402771
H      -0.42590799     -1.81021453     -1.06399866
H       0.02234208     -2.14370684      0.67107690
H      -2.37485650     -0.61643007      0.78962838
H      -0.43548246      1.06859880      1.64967022
H      -2.08021953      1.68824236     -1.40899684
