16
b3lypvtz=-181083.26209695
C       0.65330323      1.49373625     -0.41474436
C      -0.69172961      1.51085357      0.43096343
C      -0.75975396     -0.00966051      0.06616726
C       0.74249652     -0.02051245     -0.00906921
C       0.68705602     -1.52874149     -0.40842448
C      -0.66572778     -1.49562308      0.42630297
N      -1.27541574     -2.26606516      1.20575953
H       1.46372472      2.14664951     -0.09447650
H       0.44673547      1.64808450     -1.47350643
H      -0.49229290      1.69437455      1.48551223
H      -1.50036633      2.15348053      0.08756344
H      -1.10808180     -0.02626964     -0.97551604
H       1.11887991     -0.01076990      1.01851879
H       0.49065591     -1.71230218     -1.46481263
H       1.47299117     -2.19349102     -0.05187949
H      -0.84947485     -3.19374348      1.22184151
