13
b3lypvtz=-216136.79250622
C      -1.67250033     -0.00988329      0.15989037
C      -0.32738564     -0.25266643     -0.51131219
C       0.79141528     -0.88121062      0.33797543
C       1.66394153      0.31969081      0.26365467
C       0.57128970      1.02525364     -0.52448895
O       0.36693003      2.16245469     -0.82740175
O       1.95691375     -0.88855288     -0.47229405
H      -1.55411260      0.44288751      1.14631358
H      -2.22221514     -0.94460099      0.27882129
H      -2.27652757      0.66706428     -0.44381458
H      -0.44079153     -0.74531648     -1.47715966
H       0.71675954     -1.59819386      1.14307769
H       2.42628296      0.70307360      0.92673817
