14
b3lypvtz=-203712.43422762
C      -2.45634677      0.29114551      0.52189413
C      -1.55481969     -0.40691888     -0.50607205
C      -0.10275795     -0.25810502     -0.21777331
N       0.75321016     -1.16687511      0.11960188
C       1.95462721     -0.48760132      0.27864940
C       1.75819860      0.82148295      0.02489875
O       0.43753888      0.99129439     -0.29750464
H      -3.50589752      0.15173247      0.26119813
H      -2.25567347      1.36191367      0.55709919
H      -2.29765211     -0.11743177      1.52030086
H      -1.76150256     -1.47572123     -0.53350391
H      -1.76067165     -0.00819433     -1.50297641
H       2.86170833     -0.99311230      0.56113322
H       2.37730954      1.69911198      0.02112175
