17
b3lypvtz=-191975.85753218
C       2.56775136      0.67260285      0.63917884
C       1.12903130      0.83818069      0.24806102
C       0.32283932     -0.11734643     -0.23225105
C      -1.09368102      0.19637433     -0.65269316
N      -2.03275344     -0.76344480     -0.07972984
C      -3.04646387     -0.32380499      0.52471246
N       0.68464173     -1.44056750     -0.49328405
H       3.19488146      1.42927886      0.15989528
H       2.71223368      0.78437620      1.71874209
H       2.97562998     -0.29817021      0.35394364
H       0.71044993      1.83142207      0.35171896
H      -1.16312534      0.08368270     -1.74063083
H      -1.34112141      1.23202581     -0.39666817
H      -3.75871926     -1.02392614      0.95616676
H      -3.26098138      0.74527319      0.64513676
H      -0.09484538     -2.07625948     -0.39624008
H       1.49423233     -1.76969714      0.00808920
