13
b3lypvtz=-213762.64346896
C       2.28765678      0.28772526     -0.60010709
O       1.68742788     -0.98958248     -0.32396534
C       0.37866812     -0.99121771     -0.06605420
N      -0.33542269      0.04886108     -0.05418010
C      -1.75076818     -0.12081682      0.24624979
C      -2.44937962      1.16828264      0.22576444
N      -3.02587128      2.16263256      0.21709779
H       3.33815938      0.08054880     -0.77975622
H       2.16441001      0.95711907      0.25005374
H       1.82699418      0.74244247     -1.47592968
H       0.03668909     -2.01118132      0.12759737
H      -1.90961507     -0.56211575      1.23623631
H      -2.24894859     -0.77269778     -0.47962050
