15
b3lypvtz=-170266.26633623
C       2.68082509      1.15560518     -0.13067431
C       1.75297408      0.43767392     -0.38763741
C       0.62519038     -0.43079946     -0.67809441
C      -0.05261077     -1.21975650      0.50653610
C      -1.39338598     -0.58366539      0.13869283
C      -0.74012198      0.21342664     -0.98811109
C      -1.29506575      0.91020384      0.21540579
H       3.50257772      1.78972478      0.08997575
H       0.90283125     -1.13014619     -1.46741889
H      -0.01262031     -2.29462833      0.34290114
H       0.32511307     -0.99525218      1.50421580
H      -2.34503865     -1.09511339      0.13463581
H      -1.10161566      0.41544738     -1.98618147
H      -2.21905878      1.44638940      0.04407544
H      -0.62999372      1.38089028      0.93070633
