15
b3lypvtz=-170274.45244205
C      -2.48199529     -0.95181901      0.15264795
C      -1.39180240     -0.45766401      0.05371035
C      -0.07521685      0.11738253     -0.07453481
C       1.00036080     -0.87406534     -0.38332489
C       2.17199924     -0.98410973      0.22881522
C       0.00479590      1.49685967     -0.73451336
C       0.22633896      1.36216151      0.73777220
H      -3.44566657     -1.38612550      0.24559174
H       0.75962091     -1.55240479     -1.19594428
H       2.89478404     -1.72500349     -0.08527004
H       2.45460379     -0.35208763      1.06069587
H      -0.92217500      1.92848906     -1.08294212
H       0.86516065      1.67237267     -1.36464131
H       1.23162195      1.47937451      1.11445439
H      -0.54937711      1.70519353      1.40614710
