14
b3lypvtz=-227012.96870425
N       2.04229650      1.39126035      0.59155259
C       1.03889447      0.71325418      0.24985318
C       0.81951694     -0.78480103      0.12859944
C      -0.46987318     -0.88960939     -0.69068727
C      -1.16996016      0.42066657     -0.34365343
O      -1.93831972      0.22180254      0.81406694
O      -0.11821111      1.35940263     -0.10358523
H       2.82818760      0.78188853      0.80042480
H       0.68689263     -1.20215618      1.12786048
H       1.67745416     -1.27210914     -0.33008090
H      -0.25217590     -0.91434261     -1.75839451
H      -1.09155217     -1.74492503     -0.43897242
H      -1.77140345      0.84471135     -1.14922180
H      -2.28174663      1.07495722      1.10213813
