17
b3lypvtz=-191963.47555289
C      -2.04420096     -1.37426496     -0.23168093
N      -1.30581066     -0.71086400      0.55204598
C      -0.80023538      0.53941461      0.15102250
C      -1.58478399      1.53807615     -0.25836882
C       0.68532562      0.67951336      0.36025165
N       1.42738205     -0.36980100     -0.33154145
C       2.86512583     -0.28011018     -0.12035951
H      -2.28163565     -1.04322543     -1.24694433
H      -2.46579696     -2.31752905      0.10725991
H      -1.16947468      2.50617455     -0.49920096
H      -2.65940975      1.42759631     -0.30662323
H       1.00883820      1.64726934     -0.02612430
H       0.87990988      0.68178460      1.44719446
H       1.09178965     -1.27019322     -0.01034726
H       3.16305009     -0.26532980      0.94032112
H       3.35856015     -1.12430823     -0.60221548
H       3.24758357      0.63303396     -0.58187236
