14
b3lypvtz=-224604.65114862
N       3.19115372     -0.21722746      0.03183670
C       2.01544288      0.25858647      0.01799507
N       0.85830520     -0.53125782     -0.00400503
C      -0.28895965      0.01939450     -0.04369643
O      -0.53170601      1.33632806     -0.06042227
C      -1.54288025     -0.84329872     -0.11105096
N      -2.73456486     -0.02848649      0.15445468
H       3.13596876     -1.23888681      0.02190773
H       1.89458525      1.34190195      0.02518014
H      -1.51416076      1.40714197     -0.03898106
H      -1.41765818     -1.68806778      0.56628977
H      -1.60143434     -1.25265301     -1.12065669
H      -3.05276568     -0.12007748      1.10999388
H      -3.50459908     -0.26599140     -0.45383853
