15
b3lypvtz=-193584.13906278
O       2.83935183     -0.14522012     -0.08417626
C       1.86217881     -0.54816695      0.49647041
C       0.46704347     -0.15151894      0.14078742
C      -0.23431360     -0.35343785     -1.24204636
C      -1.26795872      0.37602574     -0.34108844
C      -0.10882293      1.30188901      0.11905004
C      -0.86724630     -0.59595933      0.80442417
H       1.96246026     -1.25460431      1.34859215
H      -0.45997648     -1.38367173     -1.51684237
H       0.18274225      0.20950580     -2.07509854
H      -2.27632841      0.67763966     -0.61527519
H      -0.21982716      1.78569330      1.08932908
H       0.31679767      1.97225648     -0.62541434
H      -1.04539067     -0.24935690      1.82255576
H      -1.15091002     -1.64107385      0.67883246
