13
b3lypvtz=-234626.83589216
C       1.35842587     -0.76346821      0.28466327
C       0.35711694      0.12143541      0.14776875
N       0.52027228      1.49160186      0.17385397
N      -0.94908502     -0.32513997     -0.09235236
N      -1.99346758      0.50118917      0.00300497
N      -3.14944222      0.06499061     -0.15237772
O       2.63075896     -0.30294587      0.60188715
H       1.20037305     -1.83352625      0.24289149
H      -0.30273745      2.00681794      0.44412505
H       1.36846944      1.77601362      0.63717994
H      -1.11685011     -1.31952790     -0.22324716
H      -3.14835101     -0.95893372     -0.34136444
H       3.22451684     -0.45850670     -0.14042171
