16
b3lypvtz=-232744.43078865
C      -1.67263358      0.73941515      0.63397478
C      -0.35061052      0.47499027     -0.11358728
C      -1.19297418     -0.52798577     -0.92989717
O      -2.41566574     -0.07620071     -0.29749022
C       0.83740589     -0.03654898      0.68639720
C       2.05891079     -0.33505757     -0.15806305
F       1.76860366     -1.33056183     -1.09885135
H      -1.70737932      0.32766391      1.64907586
H      -2.03241576      1.77048330      0.65448881
H      -0.05073497      1.33396952     -0.71638481
H      -1.21662319     -0.38858486     -2.01162528
H      -0.98612283     -1.57776750     -0.70677365
H       0.55569058     -0.93594504      1.24144748
H       1.13085067      0.71268196      1.43028220
H       2.38535197      0.54690821     -0.71498315
H       2.88834657     -0.69746003      0.45198964
