13
b3lypvtz=-213777.90203952
C      -2.00610182     -0.68469821     -0.31225636
C      -0.77538279     -0.21941141     -0.10952164
C      -0.36818833      1.18952132      0.26976566
O       1.06801308      1.15298347      0.36286952
C       1.52286223     -0.10549763      0.08167505
N       2.72060193     -0.49735753      0.06892547
N       0.42593023     -0.89659972     -0.19304904
H      -2.19075949     -1.71458816     -0.58161158
H      -2.85922556     -0.03153247     -0.20996063
H      -0.65355354      1.92150210     -0.48658877
H      -0.77611914      1.49358007      1.23434347
H       3.35533629      0.25897072      0.30224521
H       0.53658691     -1.86687256     -0.42683635
