14
b3lypvtz=-203718.16378445
C       1.74550619     -1.24322013      0.09543087
C       0.55457412     -0.67400720     -0.02737189
C      -0.80717608     -1.30804896     -0.15382957
C      -1.79281942     -0.15529878      0.15201817
N      -0.97687909      1.03417947     -0.03678494
C       0.37574772      0.81658674     -0.03536673
O       1.23805193      1.67160322     -0.03628275
H       1.87557155     -2.31719072      0.12577341
H       2.62769098     -0.62027084      0.16783275
H      -0.94849587     -2.15623617      0.51412162
H      -0.96018069     -1.66502100     -1.17487192
H      -2.17024467     -0.22017765      1.17739366
H      -2.65061168     -0.15682801     -0.52112942
H      -1.33316698      1.96804103      0.08203873
