12
b3lypvtz=-226236.33491087
C       2.46458502     -0.26106949      0.00012948
N       1.25550949     -0.63841335      0.00009512
C       0.25566756      0.42046330      0.00006992
O       0.51943866      1.59667505      0.00007103
C      -1.12410375     -0.14882883      0.00000187
C      -2.19327459      0.65117332     -0.00007090
O      -1.21959819     -1.50205841      0.00001380
H       2.74131803      0.79521955     -0.00009430
H       3.25164283     -1.00991616     -0.00007616
H      -3.19324073      0.24388143     -0.00012284
H      -2.05231610      1.71959201     -0.00007463
H      -0.30936122     -1.84337742      0.00006261
