13
b3lypvtz=-216173.78191184
C      -2.20381895      0.16170487      0.67098240
C      -1.17402566     -0.44069832     -0.25324668
O      -1.47814666     -1.11967703     -1.21100914
C       0.25699758     -0.15344022      0.07720581
C       1.26318162     -0.62708958     -0.66032680
C       2.68289718     -0.34572439     -0.33843369
O       3.05027683      0.32223562      0.59993112
H      -2.04140108     -0.18925837      1.69344476
H      -2.09837921      1.24952072      0.69216051
H      -3.20428893     -0.10625844      0.34280133
H       0.47708077      0.45925197      0.94410415
H       1.04947697     -1.24049866     -1.52835467
H       3.42014953     -0.79666818     -1.02915911
