14
b3lypvtz=-224635.73511279
C       1.55502822      1.24983987      0.08493531
C       1.27762513     -0.22481628      0.00175117
N       2.14445610     -1.15557908     -0.06686252
N      -0.05331642     -0.65739898      0.01402883
C      -1.22321713      0.08632365     -0.02251287
N      -2.35795286     -0.70221384      0.00155879
O      -1.27385638      1.29717964     -0.10559124
H       2.63159410      1.40615533      0.12081039
H       1.09127496      1.68748245      0.96800280
H       1.13345462      1.77535844     -0.77000161
H       3.08461329     -0.77274155     -0.05811741
H      -0.12090666     -1.66166619     -0.05927184
H      -3.20802031     -0.18224028      0.14099195
H      -2.32784666     -1.60753617      0.43997425
