20
b3lypvtz=-182678.62410482
C      -2.32661596     -0.58423810      0.61522963
C      -1.46114531     -0.17643960     -0.58900429
C      -0.14642835      0.47223474     -0.20719705
C      -0.21755198      1.96677453     -0.03958511
C       0.96848948     -0.26095945     -0.04060312
C       2.33178691      0.27254996      0.30277932
N       0.99764792     -1.65623791     -0.25601764
H      -1.82096796     -1.32880130      1.23361668
H      -3.28116299     -1.00648389      0.29361460
H      -2.54104979      0.27472035      1.25342663
H      -2.03154751      0.52580470     -1.20417263
H      -1.29265423     -1.04755228     -1.22772773
H      -1.02292945      2.24236096      0.64944566
H       0.69635266      2.41041328      0.34779031
H      -0.44742436      2.46013454     -0.99092403
H       3.05872283     -0.05821763     -0.44423095
H       2.66771704     -0.11490434      1.27060687
H       2.36741825      1.35561738      0.34709999
H       1.72298198     -2.12865091      0.26200000
H       0.11654983     -2.12881104     -0.13461513
