13
b3lypvtz=-192841.6172617
C       2.99980397     -0.40950983     -0.00020115
C       1.93768168      0.15626491     -0.00005981
C       0.73895479      0.91117756      0.00009770
C      -0.52072894      0.42650764     -0.00023653
C      -1.72860775      1.31050205     -0.00017571
C      -0.75470141     -1.03262613     -0.00026051
O      -1.86099473     -1.52641430      0.00040068
H       3.92710032     -0.92665265     -0.00034953
H       0.87813040      1.98823941      0.00054384
H      -1.45320477      2.36387081      0.00017512
H      -2.35215357      1.10621362     -0.87256528
H      -2.35245764      1.10567056      0.87186389
H       0.15139966     -1.66293762      0.00071928
