12
b3lypvtz=-254524.60733757
C       2.67825972     -0.14889364     -0.58436677
C       1.41048226     -0.48538591     -0.40460419
F       1.01555134     -1.77019387     -0.41896090
O       0.41452207      0.38552920     -0.19566790
C      -0.89585680     -0.03246966     -0.01589274
C      -1.83231777      0.88847644      0.18353819
O      -3.16002260      0.64470488      0.37614201
H       2.96552840      0.88883239     -0.56794932
H       3.41603905     -0.91592157     -0.74623043
H      -1.08072556     -1.09485028     -0.04887132
H      -1.60065093      1.94348057      0.20884855
H      -3.33110917     -0.30340854      0.34711482
