13
b3lypvtz=-237066.95964398
N      -3.01911116      0.71704938     -1.30421134
C      -2.02127977     -0.05761575     -1.36087337
N      -0.82137907      0.12324624     -0.65882954
C       0.07950284     -0.75866184     -0.83285815
O       1.26687827     -0.73131187     -0.24412988
C       1.53061135      0.37859830      0.66243028
O       2.81547797      0.24280263      1.14102532
H      -2.81569271      1.49286085     -0.67046859
H      -2.08795414     -0.94166007     -2.00489329
H      -0.01604526     -1.63265648     -1.48129692
H       1.47175485      1.30754040      0.10056295
H       0.76303353      0.35847735      1.43827600
H       2.85430330     -0.49866913      1.75436652
