15
b3lypvtz=-191216.1494075
C       2.04379750     -1.21993141      0.28231422
C       0.78856213     -1.21819630     -0.18331858
C      -0.22543089     -0.17193504     -0.09211923
C      -1.63022434     -0.61835415     -0.15160502
N      -2.69699053     -0.04645130      0.24389104
C       0.04223746      1.16059028     -0.07146533
N       1.26436753      1.76370585     -0.03410548
H       2.68349038     -2.07835283      0.13078537
H       2.45543457     -0.41916827      0.88220739
H       0.44903246     -2.12067302     -0.68647411
H      -1.75893817     -1.60431985     -0.60776629
H      -2.49530472      0.84246178      0.70711150
H      -0.78945452      1.85486571     -0.09854467
H       2.07156591      1.19402042     -0.23965588
H       1.31791324      2.71073214     -0.36949294
