14
b3lypvtz=-201244.61792423087
C      -1.81247960     -0.81871004     -0.16316148
N      -0.82013635      0.19712892     -0.47940474
C      -0.52715924      1.17653067      0.55904614
C       0.45991947      0.11100348      0.22382366
C       1.70293110      0.37766191     -0.53140854
N       2.70641915     -0.43313571     -0.44461686
N       3.58687417     -1.14381118     -0.34008052
H      -2.80843889     -0.42872563     -0.37891760
H      -1.64548886     -1.69420167     -0.79187589
H      -1.78711799     -1.13621958      0.89012939
H      -0.36645823      2.19253407      0.21817139
H      -1.04702594      1.09142283      1.50945620
H       0.55506849     -0.68383739      0.95966448
H       1.80309273      1.19235933     -1.23082564
