16
b3lypvtz=-202036.66668864
C       2.67987485     -0.95166606     -0.02511890
C       1.19504645     -0.78909786      0.08650370
C       0.53056644      0.37669876      0.03759972
N       1.14865911      1.64180232      0.00870819
C      -0.93552752      0.46285075      0.11963509
N      -1.70515710     -0.50687373     -0.18362998
N      -3.05691410     -0.31140773     -0.09752345
H       2.93023200     -1.90667893     -0.49043662
H       3.14331741     -0.16857469     -0.63234550
H       3.17807349     -0.93766282      0.95111360
H       0.60078772     -1.67969487      0.23433626
H       2.14484285      1.61184619     -0.14368469
H       0.71268771      2.29951834     -0.62243693
H      -1.34211341      1.42243188      0.46135693
H      -3.53185153     -1.19257128      0.02039072
H      -3.35338638      0.37577273      0.59106687
