14
b3lypvtz=-203653.18857953
C       2.02912500      0.72116600      0.16002739
C       0.92290419     -0.01236532      0.20767585
C      -0.00079134     -0.59827405     -0.81370481
C      -0.83299227     -1.09465110      0.38751381
C      -1.39373529     -0.07146099     -0.54338933
O      -1.64715686      1.23737019     -0.12494213
N       0.16575567     -0.52910777      1.29691828
H       2.47513185      0.97411607     -0.79073230
H       2.52653826      1.05250725      1.06112802
H       0.27174607     -1.09601447     -1.73168257
H      -1.27084614     -2.06497869      0.57311199
H      -2.14071167     -0.45322621     -1.23334471
H      -0.93894061      1.80749885     -0.44339502
H      -0.16602686      0.12742024      1.99481553
