19
b3lypvtz=-192742.75839007
C      -0.69471334      1.92384435      0.18133297
C      -0.66621508      0.61268751     -0.10709026
C      -1.93858032     -0.16227072     -0.37634808
N      -1.94071491     -1.44052220      0.35345932
N       0.46904102     -0.15671978     -0.24870035
C       1.77367473      0.33512698      0.14265653
C       2.83629146     -0.73902396     -0.04335882
H       0.19986920      2.50526287      0.34651225
H      -1.63899195      2.44540390      0.22422259
H      -1.97915704     -0.40355694     -1.44197157
H      -2.79480263      0.48010762     -0.15107191
H      -2.67136227     -2.04884961      0.00650741
H      -2.12500181     -1.28352326      1.33786973
H       0.29329038     -1.13482478     -0.06262664
H       2.01829918      1.20582808     -0.47246621
H       1.77007070      0.68490392      1.18563558
H       3.81818070     -0.36072456      0.24209852
H       2.62460796     -1.61345102      0.57644244
H       2.88279401     -1.06403442     -1.08361650
