18
b3lypvtz=-181894.62992651
C      -2.74453404     -0.56101688      0.31246385
C      -1.88044207      0.44517948      0.13262198
N      -0.61116223      0.35085633     -0.38332417
C       0.19274897     -0.87174809     -0.45975085
C       1.47225428      0.00468893     -0.39553580
C       2.57132904     -0.39673456      0.56912426
C       0.53904753      1.18116323      0.00248964
H      -3.74042157     -0.36196639      0.67661968
H      -2.49356230     -1.58623029      0.07641624
H      -2.17049398      1.46369777      0.37228019
H       0.06694855     -1.51877978      0.41878970
H       0.03469886     -1.46792561     -1.36075897
H       1.88218546      0.16117057     -1.39353048
H       3.05700366     -1.32137465      0.24970285
H       2.17584762     -0.55772836      1.57410869
H       3.34198160      0.37465310      0.63272863
H       0.63998346      2.11184478     -0.55979260
H       0.57494715      1.40574244      1.07569116
