15
b3lypvtz=-191099.46991942
C      -1.63187054      1.03190340      0.39004216
C      -0.65702824     -0.17070358      0.13448298
C       0.36131827      0.85370132     -0.03418596
N      -0.71127643      1.77185428     -0.60699280
C       1.44507836     -0.24044771     -0.17118812
N       0.45524698     -1.16867846      0.63462818
C       1.02440901     -1.56019093     -0.67200744
H      -1.58700388      1.45220815      1.39625393
H      -2.65977282      0.92791147      0.04848421
H      -0.99684508     -0.55433048     -0.82554838
H       0.60283260      1.25727078      0.95845311
H      -0.57176561      2.74731747     -0.35474500
H       2.45250541     -0.08901830      0.19334865
H       0.36753967     -1.66115004     -1.52873710
H       1.76373229     -2.34884736     -0.59238844
