15
b3lypvtz=-212105.24381627
C       1.67253026     -1.38141470      0.66872539
N       1.52708110     -0.14063536      0.40972252
N       0.36107774      0.41039624     -0.02118560
C       0.50725663      1.80118608     -0.44299360
C      -0.89065767     -0.23863127     -0.06981209
N      -1.32624715     -1.13377707      0.72804622
N      -1.70941317      0.23874057     -1.08195354
H       0.90241122     -2.14147849      0.58387235
H       2.66940989     -1.68249661      0.96469270
H      -0.43039504      2.33213118     -0.30195761
H       1.28226265      2.25342251      0.17064278
H       0.80924961      1.88686773     -1.49183709
H      -0.70961775     -1.26303561      1.52197102
H      -1.27079637      0.41969178     -1.97145363
H      -2.56989094     -0.28323998     -1.14805584
