17
b3lypvtz=-194384.54548155
O      -2.48316643      0.73019271      0.79892605
C      -1.68395872     -0.26266441      0.15803950
C      -0.26798101     -0.15566986      0.68934666
C       0.68186806     -1.23859654      0.11075409
C       1.98529085     -0.50371629     -0.07137117
C       1.84576221      0.80879424      0.07914209
C       0.42491948      1.20109622      0.39145838
H      -3.37768324      0.68071568      0.45106145
H      -2.08162779     -1.26633827      0.35545669
H      -1.67807026     -0.11480314     -0.93046589
H      -0.31455652     -0.28168009      1.77335384
H       0.76966523     -2.10476547      0.77077382
H       0.31976437     -1.62267731     -0.85167950
H       2.90857803     -1.00568450     -0.32957785
H       2.64180461      1.53270229     -0.03832852
H       0.34701518      1.89487380      1.23005078
H      -0.03752406      1.70832093     -0.46334043
