18
b3lypvtz=-205205.37623504
C       1.38925900      1.84397551     -0.04330620
C       0.83570338      0.63417726     -0.04881502
C       1.59610747     -0.55596045      0.49328339
O       1.64508064     -1.65651852     -0.41972017
C      -0.55920505      0.38731906     -0.56351904
C      -1.57299410     -0.03457725      0.52037124
N      -2.93889201     -0.26206029      0.05174962
H       0.85626097      2.71655933     -0.40010545
H       2.39756487      2.00443907      0.31858608
H       2.62905803     -0.26810509      0.68899398
H       1.16338330     -0.87754637      1.44764951
H       0.89698479     -2.23531122     -0.25380217
H      -0.52335962     -0.39449144     -1.32943573
H      -0.92918677      1.29053906     -1.05414690
H      -1.60656081      0.73207608      1.29776776
H      -1.23752675     -0.95098807      1.01343814
H      -2.95443048     -0.97034716     -0.67349453
H      -3.31567188      0.58262750     -0.36321650
