16
b3lypvtz=-181168.07891926
N      -2.51880000     -0.00005291     -0.71420911
C      -1.60238982     -0.00001454     -0.01739981
C      -0.42746248      0.00000523      0.85529294
C       0.49789430     -1.20508636      0.56670763
C       1.33006193     -0.77740982     -0.65957480
C       1.33009403      0.77740501     -0.65959088
C       0.49788954      1.20509192      0.56666581
H      -0.78616216      0.00001542      1.88576544
H      -0.05137149     -2.13209730      0.41218665
H       1.14040028     -1.34283949      1.43827508
H       2.33716708     -1.19034291     -0.61442660
H       0.87427382     -1.15444587     -1.57476065
H       0.87435628      1.15445649     -1.57479517
H       2.33721036      1.19030722     -0.61441074
H       1.14037741      1.34288611      1.43823958
H      -0.05138408      2.13208978      0.41209463
