15
b3lypvtz=-193579.85688792
O      -1.17519026      1.73121986     -0.41962800
C      -0.67949868      0.51367776      0.03871354
C      -1.52472563     -0.72980223      0.06594990
C      -0.31388790     -0.67626052     -0.84101864
C       0.95673659     -0.85845096     -0.05157222
C       1.79317115      0.38740187     -0.08092058
C       0.59466728      0.35068168      0.82704084
H      -1.80347892      2.07130225      0.22599685
H      -2.47569274     -0.63127362     -0.44244152
H      -1.53343153     -1.38635824      0.92862776
H      -0.41021378     -0.74227316     -1.91604955
H       1.34543740     -1.80371372      0.30199622
H       1.78497787      1.02676381     -0.95532076
H       2.75264359      0.31913761      0.41637999
H       0.68838557      0.42804760      1.90234618
