14
b3lypvtz=-203640.10400926
C      -1.62648523     -0.79018640      0.15931197
C      -1.10781748      0.31460664     -0.69306403
C      -0.28732543     -0.98589763     -0.52144291
C       0.74907311     -0.18861566      0.17855120
N       1.91685192     -0.51495160      0.53499747
O       2.59975935      0.59763966      1.09031561
C      -0.03373351      1.11385053      0.06592005
H      -1.67724966     -0.67781094      1.23630610
H      -2.42850748     -1.38027753     -0.26458042
H      -1.61677094      0.65021331     -1.58362478
H      -0.11109673     -1.79616506     -1.21247890
H       3.46174046      0.22350840      1.29599172
H       0.50512187      1.83395627     -0.54998873
H      -0.34356025      1.60012998      0.99173155
