18
b3lypvtz=-205216.33651004
C       1.86310841      1.39534260      0.02067650
C       1.62702109      0.07540506     -0.00361723
N       2.60615139     -0.91107990     -0.07375432
O       0.40659403     -0.52027659     -0.01523840
C      -0.75346650      0.30890791     -0.00281930
C      -1.97667227     -0.58954476      0.00251539
C      -3.27660828      0.21367988      0.01079845
H       2.88004807      1.75615574      0.03670914
H       1.07262596      2.12383935     -0.01241834
H       3.51844449     -0.60292180      0.22150027
H       2.33093156     -1.77381254      0.37180101
H      -0.74859113      0.95527475     -0.88643761
H      -0.73505872      0.95020632      0.88454094
H      -1.93091834     -1.24153826      0.87794391
H      -1.93959454     -1.23872760     -0.87515961
H      -4.14325770     -0.44774251      0.01482094
H      -3.35468921      0.85487089     -0.86976595
H      -3.34502127      0.85314147      0.89348322
