19
b3lypvtz=-171853.47156808
C       2.42975061     -0.06498034     -0.01509997
C       0.93508629     -0.03091475     -0.33010817
C       0.29428422      1.29617062      0.10270407
C      -1.20942026      1.26360965      0.05577587
C      -1.91645517      0.14225012     -0.05189464
C      -1.29239027     -1.22545165     -0.10866542
C       0.18192400     -1.20409793      0.30859552
H       2.60205086     -0.01684287      1.06344846
H       2.89236492     -0.98247673     -0.38457200
H       2.95209668      0.77878585     -0.47147451
H       0.81305490     -0.11450202     -1.41659655
H       0.62266320      1.54869653      1.11981673
H       0.66379852      2.10925529     -0.53029687
H      -1.72539518      2.21643389      0.11219530
H      -2.99894074      0.19585060     -0.10145459
H      -1.38980037     -1.62746761     -1.12474903
H      -1.85470235     -1.91312319      0.52997754
H       0.66179292     -2.14979652      0.04431079
H       0.24838722     -1.11296492      1.39820847
