12
b3lypvtz=-202890.64920741023
C       0.58765968      1.18257963     -0.57230760
C       1.50712871      0.19351273      0.14769146
O       2.68327024     -0.01182670      0.16537598
C       0.32305960     -0.34895213      0.96688172
N      -0.58677323      0.65285819      0.22910415
C      -1.16109333     -0.51633114     -0.39006156
C      -0.46031688     -1.43881826      0.27862318
H       0.82433050      2.21533301     -0.31244942
H       0.48976202      1.09131463     -1.65227637
H       0.39421799     -0.30032266      2.05247334
H      -1.91225927     -0.50795209     -1.16776070
H      -0.46178602     -2.51379521      0.35290582
