14
b3lypvtz=-226986.64150035
N       1.04471942      1.99086579      1.04605708
C       0.01974346      1.33059415      0.68026663
C      -0.07964641      0.09397010     -0.12003539
C       0.95520493     -0.60112721     -0.61457950
O       2.25472820     -0.23670168     -0.44560236
C      -1.47110865     -0.41916105     -0.38474146
O      -2.16821086     -0.77456590      0.81012633
H       1.90380285      1.55445909      0.71711989
H      -0.95120328      1.71703388      0.99669027
H       0.79161963     -1.50400502     -1.19378289
H       2.83538626     -0.87058876     -0.87543476
H      -2.08408121      0.36045696     -0.84087905
H      -1.43816717     -1.26036958     -1.08652316
H      -1.61288717     -1.38076077      1.31131837
