18
b3lypvtz=-181924.47541916
C       1.96378867     -0.92151252      0.18352094
C       0.59582453     -0.53322880     -0.36614919
C      -0.58533240     -1.38912664      0.12209885
C      -1.81747484     -0.50937688     -0.14274044
C      -1.33903577      0.90121819      0.23131986
C       0.15413434      0.90161785     -0.05382179
N       0.85181913      1.95685517     -0.01536906
H       2.75209881     -0.26796912     -0.19534878
H       1.97685064     -0.86414365      1.27371171
H       2.22326973     -1.94156744     -0.10444312
H       0.62682295     -0.60430985     -1.46147045
H      -0.63535544     -2.36090129     -0.36991967
H      -0.48262131     -1.57195779      1.19655363
H      -2.69574475     -0.82587982      0.41900652
H      -2.07844235     -0.54989851     -1.20344760
H      -1.84515492      1.70932253     -0.29491099
H      -1.47863369      1.08378652      1.30103849
H       1.83494868      1.76144008     -0.21035391
