14
b3lypvtz=-203697.34197216
N      -2.29247223     -0.01107889      0.02076957
C      -0.92103901      0.10277027      0.01697536
C      -0.20420167      1.24200010      0.19004666
C       1.21500833      1.18929849     -0.07838733
C       1.84618765      0.00786869     -0.12896581
C       1.03971070     -1.19690460      0.24212474
O      -0.32735867     -1.08535313     -0.23909988
H      -2.80572285      0.78323988     -0.32277485
H      -2.63529066     -0.89910518     -0.30880647
H      -0.71160782      2.17475411      0.38329832
H       1.74028835      2.11293072     -0.28860175
H       2.88454185     -0.10093791     -0.40663674
H       0.98348340     -1.32576075      1.33329270
H       1.41683463     -2.11802580     -0.19623853
