15
b3lypvtz=-216911.6839317
C      -3.44582511     -0.19823322      0.41322229
C      -2.35511929     -0.30879364     -0.33164277
C      -1.15925766      0.57891525     -0.21007578
O       0.00450584     -0.22856836     -0.07163991
C       1.19970565      0.51236981     -0.03766975
C       2.36256306     -0.44942750      0.08357942
O       3.50872246     -0.09446647      0.15281144
H      -4.30043047     -0.84500142      0.26626971
H      -3.52702641      0.54721350      1.19564006
H      -2.29228443     -1.06962734     -1.10276500
H      -1.26257054      1.25323632      0.64932985
H      -1.05963204      1.20313740     -1.11086055
H       1.33686919      1.11187265     -0.94946766
H       1.23085884      1.20648790      0.81415393
H       2.07037192     -1.51843989      0.10243272
