9
b3lypvtz=-233093.77712877
C      -1.83023178     -0.11759830      0.04270725
N      -0.82360923     -0.88752405      0.13192476
C       0.43818095     -0.33222193      0.18993260
N       0.75434305      1.02491654      0.16873103
N       1.98791502      1.14080648      0.23860181
O       2.53079035     -0.17357619      0.30932923
N       1.52030932     -1.05467329      0.27547743
H      -1.76208085      0.97051521      0.00773652
H      -2.81561683     -0.57064448     -0.00121728
