13
b3lypvtz=-213790.55556726
N      -2.38175600     -0.62704125     -0.00002113
C      -1.18999931     -0.21179451      0.00000748
C      -0.70578142      1.24002744      0.00004048
N       0.73607267      1.10657226     -0.00000813
C       1.22267370     -0.17336473     -0.00002516
O       2.39351305     -0.48112155     -0.00002815
C       0.02133447     -1.11171193      0.00000781
H      -3.05002721      0.14585318     -0.00001892
H      -1.07636908      1.76674590     -0.88500007
H      -1.07631337      1.76668532      0.88514119
H       1.37126365      1.88768940      0.00002145
H       0.04766407     -1.76051135     -0.87635844
H       0.04769977     -1.76045319      0.87641759
