16
b3lypvtz=-204454.72048046
C       3.04140948      0.94435255      0.09006872
C       2.34718275     -0.38269587     -0.24428436
C       0.96814537     -0.46288620      0.33399477
N      -0.06357932     -0.62194282     -0.37773159
C      -1.35350323     -0.67461720      0.27660501
C      -2.33857096      0.26703380     -0.39204842
O      -3.27653026      0.76340013      0.17331462
H       4.06055025      0.95363619     -0.29676227
H       3.09384321      1.10618006      1.16856116
H       2.50591773      1.78680811     -0.34935784
H       2.28013320     -0.52832815     -1.32217422
H       2.93953090     -1.20843611      0.16481899
H       0.89808022     -0.36443293      1.42845516
H      -1.33244804     -0.46816314      1.35408171
H      -1.76889730     -1.68192093      0.13848284
H      -2.13569500      0.45461451     -1.46499126
