16
b3lypvtz=-181136.28551798
C       1.26238407      0.39108971      0.56625405
C       0.93432045     -0.71818046     -0.43445653
C      -0.25054123     -0.19828722     -1.21455305
C      -0.46293530     -1.16526205     -0.07328628
C      -0.86069698     -0.28826335      1.11506370
N      -0.10081211      0.95048561      0.78662263
C      -0.53784854      1.18092214     -0.61895602
H       1.67488760      0.02456518      1.50664412
H       1.92386821      1.16000179      0.16615246
H       1.66839093     -1.38354770     -0.86154478
H      -0.43258760     -0.46161982     -2.24484388
H      -0.80923859     -2.17627759     -0.22121726
H      -0.53729404     -0.68325363      2.07851453
H      -1.92851450     -0.07284861      1.16207638
H      -1.59213729      1.45785969     -0.64409842
H       0.04875491      1.98261632     -1.06837164
