14
b3lypvtz=-203659.13077422
C      -1.96044854     -0.12258625      0.35647500
N      -0.63228535     -0.51372992      0.81300335
C       0.49401908      0.02779937      0.17119553
C       1.59302469     -0.70615438     -0.08483244
O       1.60353706     -2.04599971      0.22551790
C       0.49795110      1.41538129     -0.14730086
C       0.48425813      2.58667369     -0.42170031
H      -2.07293514      0.95759250      0.43351427
H      -2.17503125     -0.41331616     -0.68025469
H      -2.70224702     -0.58466710      1.00698545
H      -0.53463681     -1.51344254      0.91439840
H       2.49397908     -0.26870819     -0.48729621
H       2.42806710     -2.43903145     -0.06923671
H       0.48274785      3.62018884     -0.66175343
