15
b3lypvtz=-214505.93287727
C       2.78716919     -0.46149674     -0.00160331
N       1.75582006      0.26347377      0.17332985
N       0.55165498     -0.19617552     -0.24885960
C      -0.60034500      0.44303472      0.34681560
C      -0.88864129      1.81592875     -0.27131599
C      -1.80132478     -0.46596250      0.23163671
O      -1.76577428     -1.59859750     -0.17824777
H       3.74407332     -0.06310883      0.30617342
H       2.75150761     -1.45557967     -0.45302873
H       0.45104662     -1.20190243     -0.36093329
H      -0.45534528      0.58601427      1.43082856
H      -1.74255396      2.29342152      0.21259373
H      -1.09076846      1.71953071     -1.33841791
H      -0.01683464      2.45431056     -0.14170887
H      -2.75265508     -0.01069909      0.57097661
