16
b3lypvtz=-225364.91684057
N      -2.09773397      1.33981255      0.05993022
C      -1.51238830      0.20998440     -0.06384761
N      -2.08787800     -1.05092896      0.10315261
N      -0.16034146      0.17409273     -0.37605235
C       0.75094499     -0.76775462      0.25994599
C       2.17483606     -0.48786417     -0.19772465
O       2.58966805      0.84371438      0.09378205
H      -3.10288426      1.23286169      0.16475951
H      -1.73387605     -1.77126820     -0.50842946
H      -3.09449684     -1.04009067      0.13612249
H       0.21241866      1.11385691     -0.39327076
H       0.49921029     -1.79456427     -0.01406506
H       0.70149715     -0.71232141      1.35789035
H       2.85338545     -1.22235633      0.24896557
H       2.23799577     -0.58030169     -1.28217177
H       2.65859446      0.94522465      1.04870586
