13
b3lypvtz=-234694.74551335
N      -1.32190432      1.31838541     -0.06188693
C      -1.22403214      0.04801530     -0.01677892
N      -2.26884134     -0.87698612     -0.01627280
N       0.01131178     -0.58439821     -0.01587876
C       1.25867226      0.03622758      0.01266950
N       1.56454299      1.25477747      0.07319471
O       2.20873383     -0.94066668     -0.02607030
H      -2.28659000      1.62603590      0.00245133
H      -3.17940825     -0.46846730      0.12011885
H      -2.12988928     -1.69745151      0.55531450
H       0.02998296     -1.57118246     -0.21150724
H       0.72751959      1.83305161      0.06547525
H       3.05372092     -0.47212899     -0.02147217
