16
b3lypvtz=-232749.26249865
C      -0.53882896      1.61564946     -0.13876966
C      -0.72441333      0.11754763     -0.18637780
C       0.42489638     -0.71714255     -0.72353895
C       1.64783839     -0.75367663      0.17461081
F       2.32456388      0.47255788      0.15384051
C      -2.08185592     -0.43819952     -0.24288358
O      -1.34404938     -0.45330765      0.98471411
H      -1.42357610      2.09149429      0.28240203
H       0.32549413      1.88142399      0.46821719
H      -0.37359160      2.01239796     -1.14274815
H       0.08289985     -1.74830432     -0.84128883
H       0.72012238     -0.35925525     -1.71358826
H       2.35425010     -1.51226570     -0.16684444
H       1.36938728     -0.95929529      1.20936766
H      -2.25130982     -1.41145059     -0.69421141
H      -2.93485829      0.23333129     -0.26065824
