14
b3lypvtz=-250321.67048651
C      -2.50875664     -0.47493385      0.26573602
N      -1.06603985     -0.58774545      0.16311086
C      -0.28040345      0.44502492     -0.22767536
O      -0.67130629      1.57380417     -0.46040172
C       1.22479566      0.11974686     -0.28433265
O       1.89150132      0.56539382      0.86991053
O       1.38163173     -1.27493148     -0.47293136
H      -2.76431604      0.58125030      0.27970132
H      -3.01051403     -0.94357331     -0.58436376
H      -2.86240896     -0.94430689      1.18416159
H      -0.63302109     -1.49696378      0.18365779
H       1.66103782      0.68692717     -1.10699143
H       1.42468246      0.23325270      1.64621952
H       2.32372335     -1.47232619     -0.43133233
