17
b3lypvtz=-194385.80638653
C       2.32104439     -0.01090289     -0.34602703
C       0.98914428     -0.05184890      0.39157413
C       0.22967447      1.24407542      0.27630087
C      -1.05014274      1.29728382     -0.07634201
C      -1.84964979      0.04922668     -0.32711731
C      -1.11253355     -1.15607814      0.24797171
O       0.25374218     -1.15058521     -0.14145545
H       2.82821042     -0.97112837     -0.25297701
H       2.16001132      0.19716264     -1.40419243
H       2.96559176      0.76485637      0.06984470
H       1.18880025     -0.24703036      1.45890146
H       0.78400492      2.15059953      0.49309604
H      -1.54844915      2.25462536     -0.17887610
H      -2.83977509      0.13248807      0.13126736
H      -2.01626297     -0.08693812     -1.40086822
H      -1.52822277     -2.09509180     -0.11632637
H      -1.19076091     -1.15136309      1.34394766
