17
b3lypvtz=-217683.59053934
C       3.13477606      0.11661834      0.02775917
C       1.84115931     -0.60060408      0.38649367
O       0.81193625     -0.38131694     -0.57578641
C       0.04799789      0.79952367     -0.38886008
C      -1.15965298      0.57388314      0.53204022
C      -2.16240051     -0.39300713     -0.04703862
O      -3.35317092     -0.20575107     -0.06018421
H       3.48556967     -0.20347951     -0.95354711
H       3.90958036     -0.11040419      0.76307966
H       3.00294468      1.19950691      0.00692575
H       2.00195700     -1.67936957      0.40571327
H       1.50145997     -0.30538822      1.38644724
H       0.66375378      1.61196711      0.01008719
H      -0.28943906      1.10862877     -1.37996131
H      -0.80718841      0.15912721      1.48321291
H      -1.66757553      1.51502781      0.74921604
H      -1.72930455     -1.31796425     -0.47563540
