16
b3lypvtz=-204434.88481814
N       2.51439279     -1.00764243      0.27001389
C       1.58935598      0.08748205      0.41924626
C       1.36131554      1.02745811     -0.71327030
C       0.22065837      0.12901258     -0.25357316
C      -0.94766279      0.69716012      0.43713868
C      -2.19284992      0.23481571      0.35484731
O      -2.52148308     -0.85507828     -0.41631362
H       2.62306733     -1.26165636     -0.70406634
H       2.18264826     -1.83086191      0.75994802
H       1.63143148      0.53250555      1.40684522
H       1.29080839      2.08673717     -0.50571406
H       1.82307922      0.79364009     -1.66449242
H       0.00830838     -0.71263835     -0.89961578
H      -0.79110788      1.55902938      1.07492582
H      -3.00930223      0.69703377      0.89665747
H      -3.46893481     -1.00151218     -0.37394499
