17
b3lypvtz=-215300.65278636
C       0.69277173      1.65382507     -0.30508418
C       0.47745685      0.35314815      0.46885295
C       1.24668852     -0.83387972     -0.14176416
N       2.69084329     -0.60146500     -0.09172442
N      -0.94290992      0.02743665      0.64431832
C      -1.86173076     -0.12952329     -0.34132442
O      -3.01155394     -0.47797497     -0.16340749
H       0.30738902      1.58049336     -1.32313093
H       0.18934584      2.48424500      0.18972505
H       1.75839893      1.86533324     -0.36790768
H       0.86184013      0.50117940      1.48139635
H       0.95605808     -0.93904269     -1.18981474
H       0.92395846     -1.74948030      0.37012626
H       3.17986885     -1.23330471     -0.71245038
H       3.05065721     -0.77129641      0.84007145
H      -1.27078164     -0.21420652      1.56728543
H      -1.46672264      0.10054874     -1.34514040
