14
b3lypvtz=-180365.2855674
C       2.79452571     -0.08744051      0.85486780
C       1.75088913     -0.25073675      0.28567338
C       0.48343368     -0.42748217     -0.40757960
C      -0.77902793     -0.43022901      0.49272964
C      -1.82399423      0.30427874     -0.37488460
N      -1.07341988      1.08517146     -1.37208191
C       0.13025290      0.70123993     -1.37603104
H       3.71705067      0.05336136      1.36033529
H       0.53841648     -1.35692329     -0.98888798
H      -0.57348101      0.13253892      1.40243464
H      -1.08257888     -1.43506867      0.77932363
H      -2.47974085     -0.38647365     -0.91259287
H      -2.46795231      0.96920582      0.20059210
H       0.86562653      1.12855781     -2.05121418
