14
b3lypvtz=-201300.63716334
N      -2.44506438      0.55383940     -0.33529297
C      -1.49049201     -0.54811827     -0.29585965
C      -0.02791581     -0.17798955     -0.35675839
N       0.35510529      1.09105917     -0.44068052
N       1.70205609      1.04525353     -0.47388413
H       2.21960581      1.90330641     -0.53758957
C       2.18593880     -0.21652421     -0.41366870
C       1.09200717     -1.04513593     -0.33636797
H      -2.29258185      1.09846274     -1.17705223
H      -2.24995571      1.19258553      0.42780811
H      -1.67052705     -1.12539293      0.61554436
H      -1.71700234     -1.22819470     -1.12202983
H       3.24255404     -0.42348556     -0.42990413
H       1.09607196     -2.11956564     -0.27416436
