15
b3lypvtz=-214540.87202119
C      -2.51524641     -0.77464427     -0.02755668
C      -1.24317673      0.04523116      0.00733312
N      -1.24339720      1.33768349      0.00049522
C      -0.01660532     -0.71644104      0.05371944
C       1.22187593     -0.15412461      0.00747224
N       1.46798597      1.18354628      0.06251566
O       2.31023493     -0.96474567     -0.07426318
H      -3.39735522     -0.13602388     -0.05589869
H      -2.57883393     -1.41715026      0.85335039
H      -2.52739156     -1.42869792     -0.90198547
H      -2.18666360      1.71053352     -0.05539608
H      -0.06791740     -1.79231315      0.11760139
H       0.59603405      1.72620381      0.02317929
H       2.23358103      1.52353240     -0.50014319
H       3.08039246     -0.48965985      0.25961354
