15
b3lypvtz=-193621.38047621
C      -2.10463159     -1.21251526      0.18867989
C      -1.43908525     -0.12812324      0.58401995
C      -0.05942561      0.22849173      0.21623058
C       0.20424662      1.70364384      0.11434375
C       0.87187090     -0.73106838      0.01797714
C       2.27473238     -0.56420973     -0.37772941
O       2.86724092      0.47239073     -0.60158506
H      -3.12523658     -1.38563840      0.50185641
H      -1.66453511     -1.94757191     -0.47284056
H      -1.95807602      0.60439716      1.19565890
H      -0.03541420      2.18191662      1.06891600
H      -0.46325100      2.14984906     -0.62841566
H       1.23221346      1.92057423     -0.14945953
H       0.58300638     -1.76367350      0.17805267
H       2.81634470     -1.52836293     -0.46770506
