11
b3lypvtz=-218041.27804286
F       2.23375038     -0.02955768      0.00000479
C       0.89148635     -0.02217822     -0.00000415
C       0.24327791      1.20745859     -0.00000117
C      -1.14140081      1.18040143     -0.00000118
C      -1.79728832     -0.04854539     -0.00000167
C      -1.02960562     -1.20248936      0.00000005
N       0.30901195     -1.19239700      0.00000035
H       0.80973357      2.12690630     -0.00000009
H      -1.70257547      2.10541075      0.00000055
H      -2.87625952     -0.10930952     -0.00000035
H      -1.49620942     -2.18044389      0.00000089
