14
b3lypvtz=-229565.43404646276
C       3.07045577     -0.00498138      0.17851339
C       1.77251108      0.14068853     -0.14336383
C       0.59107537     -0.27214458      0.50344890
N      -0.62501060      0.01997061     -0.06831178
C      -1.85402651     -0.23909620      0.30796075
N      -2.95811353      0.15152261     -0.41849393
F       1.49871062      0.81795281     -1.32485875
H       3.35104412     -0.52167090      1.08288533
H       3.83937026      0.39253208     -0.46310073
H       0.60381244     -0.81134779      1.43417273
H      -0.51211044      0.52970379     -0.93951871
H      -2.02165090     -0.77776289      1.22577528
H      -3.87455708     -0.07823644     -0.09201313
H      -2.88151058      0.65286976     -1.28309553
