13
b3lypvtz=-239504.35292638
C       2.54419452     -0.61853088     -0.00001350
C       1.21205342      0.08234971     -0.00001622
O       1.14130946      1.29857278      0.00008897
C      -0.01993760     -0.80181877     -0.00002063
C      -1.41774075     -0.16729197     -0.00000602
O      -2.39466645     -0.86521459     -0.00012320
O      -1.48485993      1.16454673     -0.00009209
H       3.34945852      0.11121216     -0.00006572
H       2.62914176     -1.26419547      0.87694750
H       2.62913056     -1.26433682     -0.87686826
H       0.02947123     -1.47050614      0.86363165
H       0.02940681     -1.47048424     -0.86369119
H      -0.57060855      1.52986951     -0.00000430
