13
b3lypvtz=-211368.47391763
N      -3.20213483      0.21150512     -0.02975457
C      -2.11073894     -0.42218924      0.01316477
N      -0.84015546      0.18687579     -0.00520552
C       0.17757546     -0.57479787      0.03824537
C       1.56436073     -0.04257790      0.00379897
N       2.59419658     -0.80444155     -0.05551346
N       1.66438445      1.31220103      0.04956947
H      -3.01636996      1.21585657     -0.07890651
H      -2.13184284     -1.51525945      0.06926484
H       0.09757151     -1.66670627      0.08525153
H       2.31937624     -1.78296478     -0.04518546
H       0.83127837      1.85470677     -0.09686591
H       2.56099969      1.72438678     -0.13802951
