12
b3lypvtz=-202918.1493834
C       0.47726567     -0.85903725      1.15172065
C      -0.16118585     -0.10905796      0.24329005
C      -1.48782326      0.37732293      0.46230610
C      -2.60133079      0.80202008      0.61330567
N       0.36894853      0.28756445     -1.00583547
C       1.59929854      0.00141659     -1.53079445
O       2.46792462     -0.65598152     -1.00563047
H       1.47559794     -1.22284193      0.98170497
H      -0.03036356     -1.09852226      2.07311574
H      -3.58611345      1.16910778      0.76363034
H      -0.23884148      0.85145297     -1.57745387
H       1.71662310      0.45655611     -2.52981496
