14
b3lypvtz=-226988.9051843
C       2.70715892      0.97972109     -0.49293473
N       1.83255288      0.67532985      0.37853116
C       0.58209176      0.21155117     -0.03627162
O       0.38665309      0.11656987     -1.37787944
C      -0.31979620     -0.10095824      0.90953694
C      -1.70985687     -0.61142989      0.72285790
O      -2.02279247     -0.74818741     -0.67089521
H       3.67225860      1.33814021     -0.14604897
H       2.54458245      0.90188541     -1.56716012
H      -0.51548636     -0.21492059     -1.52077678
H       0.00262279      0.03469751      1.93137243
H      -1.81787396     -1.58217621      1.22484763
H      -2.42280631      0.07542349      1.19806750
H      -2.91940831     -1.07574626     -0.77204670
