14
b3lypvtz=-180367.77632193
C       3.10712751      0.57190139     -0.70303803
C       1.94336659      0.45510688     -0.41012372
C       0.58794035      0.26249136     -0.08670638
C      -0.31603993      1.20481604      0.24537560
N      -1.54064275      0.67728676      0.62481703
C      -1.56841101     -0.73068509      0.17809704
C      -0.07398696     -1.10239530      0.07521033
H       4.13051734      0.68936055     -0.95586506
H      -0.15405199      2.27139527      0.29030777
H      -2.35882601      1.23252491      0.42629211
H      -2.11734433     -1.35303817      0.88314338
H      -2.04914179     -0.81150841     -0.80332260
H       0.27983815     -1.58839328      0.98977720
H       0.12965485     -1.77886290     -0.75396465
