15
b3lypvtz=-216917.02589475
C       3.38196537     -0.05529491      0.28228721
O       2.16684257     -0.43526744     -0.35172746
C       1.05241986      0.20235511      0.08451223
C      -0.11204582      0.12384820     -0.55506451
C      -1.37349283      0.76919666     -0.05803590
C      -2.37455000     -0.27136340      0.40837472
O      -3.47455427     -0.42273813     -0.05397970
H       3.32138630     -0.19087210      1.36613585
H       3.63513625      0.98530234      0.06130805
H       4.15729732     -0.70487760     -0.11550881
H       1.16673708      0.77799064      1.00067634
H      -0.16664053     -0.45394430     -1.47032380
H      -1.85329845      1.37617032     -0.82804804
H      -1.14861066      1.41268992      0.79968155
H      -2.00503717     -0.92385032      1.22823328
