18
b3lypvtz=-205224.67951833
C      -1.77045732     -1.07206827      0.00023152
C      -0.91710297      0.16892317     -0.00016671
N      -1.36566737      1.35635345     -0.00067742
C       0.61216419      0.02146577      0.00007880
C       1.07986487     -0.71492384      1.26616856
C       1.08022918     -0.71673049     -1.26480677
O       1.20362214      1.30878219     -0.00078516
H      -1.56579383     -1.68823727      0.87711627
H      -1.56590604     -1.68867888     -0.87637059
H      -2.82854668     -0.81265448      0.00023080
H      -2.38282046      1.39428534     -0.00077390
H       2.16951626     -0.71130545      1.28457975
H       0.74005801     -1.75086990      1.29705661
H       0.72553000     -0.19681871      2.15783365
H       0.74056220     -1.75276336     -1.29423041
H       0.72604240     -0.19999983     -2.15732772
H       2.16988402     -0.71300491     -1.28297253
H       0.46087642      1.93793046     -0.00096274
