13
b3lypvtz=-213746.15508022
C      -0.44479098     -1.34002010     -0.20052257
C      -0.40786482      0.19533046     -0.27351552
C       0.96441793      0.03827471      0.43905086
O       0.91889778     -1.39577395      0.29401793
C       2.12807452      0.64524539     -0.20195035
N       3.02234955      1.15554270     -0.71558263
N      -1.42232716      0.88182543      0.50205548
H      -0.55126689     -1.87629566     -1.14331418
H      -1.15344118     -1.72219087      0.53775539
H      -0.28496250      0.55977499     -1.29725489
H       0.92254897      0.34396984      1.48790062
H      -2.34820727      0.62731969      0.17662820
H      -1.34342796      1.88699738      0.39473166
