14
b3lypvtz=-224574.13104564
N       2.88475539     -0.31367001     -0.02415847
C       1.57599046     -0.76743077     -0.03107878
C       0.51098661      0.06336894     -0.01788538
N       0.70361391      1.46487306      0.06209942
C      -0.82835294     -0.47004651     -0.01650582
N      -1.84342192      0.30850646      0.00164841
O      -3.04583404     -0.42871110      0.02277382
H       3.57384238     -0.98102896      0.28183686
H       2.99873283      0.59088697      0.41474398
H       1.43378303     -1.83538089     -0.11310410
H      -0.18712724      1.94243134      0.10337201
H       1.23222355      1.82319045     -0.72448979
H      -0.95875038     -1.55080129     -0.00660757
H      -3.71542463      0.26163130      0.03803240
