15
b3lypvtz=-191232.52993364
C      -0.89150951      1.53127659     -0.10770212
C      -0.34881381      0.14555375      0.07012077
C       0.96176146     -0.14790070     -0.04589663
C       1.93278741      0.87451833     -0.29278742
N       2.75174330      1.66365172     -0.48793153
N       1.50394900     -1.44375765      0.11506733
C      -1.34241108     -0.94152498      0.36662774
H      -1.41490121      1.85608180      0.79656972
H      -1.62671698      1.55622739     -0.91829601
H      -0.11695572      2.26131245     -0.33344825
H       2.47003242     -1.51135232     -0.16509809
H       0.95887629     -2.17207496     -0.32125934
H      -1.74122531     -1.38556517     -0.55274735
H      -2.19512251     -0.54229331      0.91740270
H      -0.90149376     -1.74415292      0.95937849
