16
b3lypvtz=-181156.62719139
C       2.43264945     -0.73591957      0.00002384
C       1.21175662     -0.19246558     -0.00001075
C       0.83972117      1.28897309     -0.00001375
C      -0.67158226      1.26445823      0.00001786
C      -1.09255159     -0.00514774      0.00000053
C      -2.47415510     -0.56103681      0.00000940
N       0.00081888     -0.87877268     -0.00004925
H       3.31148228     -0.10959679      0.00005364
H       2.58147052     -1.80719851      0.00002136
H       1.25482215      1.79469108      0.87647030
H       1.25477596      1.79467064     -0.87653266
H      -1.30511703      2.13531628      0.00003010
H      -3.20877172      0.24140835      0.00003668
H      -2.64792387     -1.18545458      0.88087978
H      -2.64794752     -1.18541957     -0.88088068
H      -0.07442094     -1.87909984      0.00004462
