18
b3lypvtz=-205222.96326109
C       3.01611066     -0.30658977      0.12212165
N       1.60535381     -0.15244124      0.44775555
C       0.90657029      0.75832967     -0.44914736
C      -0.52400778      1.00967364      0.01199001
C      -1.44693034     -0.19237254     -0.09187241
C      -2.90192163      0.04393165      0.25179607
O      -1.04791207     -1.28507678     -0.43311325
H       3.20667591     -0.62320702     -0.91576396
H       3.53626185      0.64147496      0.27816046
H       3.46612804     -1.04291002      0.78849647
H       1.14585598     -1.05372560      0.39898521
H       0.89605505      0.40399846     -1.49260951
H       1.44350506      1.71070985     -0.44662917
H      -0.97319146      1.82999996     -0.55754525
H      -0.52113959      1.33532685      1.05759492
H      -2.99434997      0.50413366      1.23786205
H      -3.44710345     -0.89625794      0.22869649
H      -3.34544536      0.73924621     -0.46516296
