16
b3lypvtz=-181156.02238521
C       2.44593333     -0.95767327      0.17747970
C       1.84306085      0.10846819     -0.33354764
C       0.36710285      0.40693108     -0.37925677
C       0.06580371      1.73547387      0.33283925
C      -0.48782096     -0.74896451      0.17813334
C      -1.91976721     -0.52622393      0.00936835
N      -3.04634311     -0.34099293     -0.13379990
H       1.90779190     -1.77885524      0.63300983
H       3.52358201     -1.04873048      0.15676727
H       2.45944961      0.88984009     -0.76949364
H       0.09560874      0.53231853     -1.43342724
H       0.65596612      2.54420707     -0.09924082
H       0.31423777      1.67049318      1.39384235
H      -0.98731404      2.00079417      0.24045510
H      -0.23133583     -1.68406895     -0.32359462
H      -0.28557674     -0.89016089      1.24285245
