12
b3lypvtz=-221420.89519889
C       2.47556392      0.34884144      0.12253024
N       1.42825043     -0.61311885     -0.17071476
C       0.11156056     -0.29130423     -0.05848956
N      -0.88916589     -1.14809247      0.03955681
N      -2.01877674     -0.39257161      0.07549842
N      -1.76428758      0.85679941      0.01238887
N      -0.40093309      0.95513643     -0.07123435
H       0.04109243      1.85435824     -0.14274132
H       2.42298444      0.74619996      1.14245132
H       2.43540429      1.18342781     -0.58063369
H       3.44028127     -0.13522489     -0.00963617
H       1.61462796     -1.57779924      0.04922519
