14
b3lypvtz=-224587.76318068
C      -2.69987772     -0.70379361      0.06634924
N      -2.04261130      0.57649466     -0.08804774
N      -0.72601077      0.74859518     -0.01423778
C       0.07712582     -0.25202954     -0.04005824
C       1.52750834      0.00437734      0.00173863
N       2.14672869      1.10856846      0.04520670
O       2.21841117     -1.16698022     -0.00893899
H      -3.77396596     -0.53423563      0.09184670
H      -2.47671155     -1.36252785     -0.77609348
H      -2.39624434     -1.21254033      0.98909164
H      -2.55165931      1.40493540      0.16317934
H      -0.23744196     -1.28955198     -0.09923966
H       1.48285633      1.87907540      0.04477685
H       3.15404357     -0.92226228      0.02057680
