15
b3lypvtz=-214526.02056622
C       3.02533057     -0.29798236      0.00983289
C       1.71661625     -0.49276470     -0.02066045
O       0.85375709      0.57849262      0.00825732
C      -0.49642117      0.33967854      0.00363522
N      -1.15675113      1.54437230     -0.06438368
N      -0.97981740     -0.82679538      0.01864536
C      -2.42141365     -0.97344795     -0.00502470
H       3.68904241     -1.14836542     -0.01787768
H       3.45569386      0.69239544      0.05980108
H       1.22786328     -1.45409170     -0.06770526
H      -2.11298377      1.55267117      0.24543801
H      -0.61732576      2.35819038      0.17983359
H      -2.67441789     -2.03222382     -0.00105593
H      -2.87300124     -0.52644175     -0.89945229
H      -2.90501643     -0.52282236      0.87336252
