18
b3lypvtz=-205211.08751252
C      -0.67514253      0.35874276      0.26116511
C       0.39102384     -0.61480274     -0.26037038
C       1.72059268      0.03414966     -0.51294489
C       2.84242458     -0.29951489      0.11690518
O       4.07943105      0.25120109     -0.05858785
C      -2.03718216     -0.29825849      0.46140831
N      -3.00590835      0.66397511      0.99661674
H      -0.77896401      1.19088366     -0.44472956
H      -0.34907835      0.79613380      1.20704558
H       0.51707354     -1.43262998      0.45515934
H       0.02434992     -1.07384357     -1.18619456
H       1.74850419      0.83239868     -1.25239159
H       2.87731674     -1.08266897      0.86430361
H       4.02621541      0.94573695     -0.72505940
H      -1.94106782     -1.10931286      1.18856712
H      -2.35482248     -0.76263956     -0.48465158
H      -3.19194617      1.39015843      0.31366741
H      -3.89282007      0.21029090      1.18121818
