17
b3lypvtz=-215277.11995117
C       3.07964991     -0.31424907     -0.10334139
N       1.64073532     -0.48367634     -0.06415995
C       0.93016973      0.49772207      0.28713807
C      -0.57326535      0.43517607      0.37281230
N      -1.12767553      1.64339384     -0.24789657
C      -1.15717971     -0.87565850     -0.16134268
O      -2.58173182     -0.89167911     -0.03841074
H       3.41043361      0.69527283      0.17448739
H       3.54387345     -1.03721651      0.57055136
H       3.44017965     -0.54262241     -1.10815558
H       1.36094517      1.47563806      0.54651310
H      -0.82544676      0.50145346      1.44140706
H      -2.13946795      1.59663569     -0.19568137
H      -0.89770908      1.65380477     -1.23710215
H      -0.94280160     -0.96632294     -1.22659558
H      -0.70206662     -1.73372219      0.33818187
H      -2.80774742     -1.10131971      0.87255288
