11
b3lypvtz=-213010.64727256
C       2.34506835     -0.55955049     -0.00000925
C       1.08694969     -0.12397431     -0.00006155
C       0.56012320      1.23487874     -0.00002399
N      -0.72171454      1.25806201     -0.00020659
C      -1.14142731     -0.08678961      0.00014302
N      -2.33301301     -0.48040385      0.00001756
O      -0.01990319     -0.93199701     -0.00001379
H       2.58278708     -1.61257464      0.00003680
H       3.15371057      0.15551821     -0.00001944
H       1.16445271      2.13239016      0.00014562
H      -2.38469454     -1.49661521      0.00001660
