18
b3lypvtz=-202790.16962313
N       0.03135213     -1.09962418      0.84902846
C       0.10579077      0.18881259      0.15443684
C       1.38148705      0.36351747     -0.68593613
N       2.57715093      0.24837279      0.15491002
C      -1.13961181      0.42335708     -0.69481272
C      -2.49089817      0.17562081     -0.15422115
N      -1.94342873     -0.69466286     -1.21239933
H       0.35678243     -1.83617427      0.23001188
H       0.69169177     -1.09892436      1.61632105
H       0.11665805      0.96345525      0.93047861
H       1.41618736     -0.43148151     -1.43663307
H       1.32066734      1.31330254     -1.23523749
H       2.70313553      1.09021460      0.70583838
H       3.40864768      0.15052910     -0.41406307
H      -1.03077910      1.22968979     -1.41309735
H      -3.32034867      0.80279178     -0.45628085
H      -2.54965957     -0.23587206      0.84582829
H      -1.63472501     -1.55302459     -0.76477236
