17
b3lypvtz=-191965.1504698
C       3.40129216     -0.23699687     -0.27316874
N       2.40181277     -0.28565099      0.49234284
C       1.25578018      0.55394528      0.18625605
C      -0.00002229     -0.29816491     -0.00030715
C      -1.25579574      0.55426272     -0.18565237
N      -2.40188390     -0.28488587     -0.49274817
C      -3.40120877     -0.23737084      0.27303759
H       3.45555755      0.41244359     -1.15680410
H       4.26708014     -0.86174857     -0.06385279
H       1.42769382      1.17844788     -0.70378146
H       1.11119754      1.22569941      1.03813986
H      -0.12059967     -0.94900481      0.86789858
H       0.12052958     -0.94783103     -0.86939581
H      -1.11126638      1.22715590     -1.03665128
H      -1.42759989      1.17756319      0.70525269
H      -4.26698940     -0.86190271      0.06304069
H      -3.45524572      0.41065962      1.15772157
