16
b3lypvtz=-225350.16834735
C      -2.39118151     -0.65747836      0.60112424
C      -1.76380408      0.05205900     -0.58401918
O      -0.69869196      0.93841053     -0.17931520
C       0.53602411      0.42019762     -0.03127753
N       1.43702354      1.36574404      0.38220751
N       0.77214787     -0.82417081     -0.22868786
N       2.18254119     -1.12220373     -0.05885695
H      -1.67096322     -1.32149624      1.07557022
H      -2.75168515      0.06181219      1.33739357
H      -3.24018003     -1.25569107      0.26365251
H      -1.37631350     -0.65955552     -1.31054432
H      -2.48230726      0.71029488     -1.07093568
H       1.20309315      2.31528306      0.14347833
H       2.39101828      1.07775069      0.21359285
H       2.36152025     -1.89927559     -0.68460462
H       2.29109731     -1.51001569      0.87640213
