16
b3lypvtz=-227748.1265687
C      -1.18084580      1.81921491      0.15473393
O      -0.19215144      0.96874205     -0.40931713
C       0.09993462     -0.18504357      0.33720509
C      -0.98300664     -1.25033075      0.28191019
O      -2.00943239     -1.16952721     -0.33782450
C       1.42148319     -0.75113985     -0.18334715
N       2.50143550      0.18946419      0.10293717
H      -1.22196920      2.70735463     -0.47255893
H      -2.16303885      1.34374026      0.16617594
H      -0.90628568      2.11621853      1.17368433
H       0.24419103      0.06548082      1.40223085
H      -0.74919124     -2.15324150      0.88914258
H       1.28851409     -0.97755790     -1.25019251
H       1.63078742     -1.69191569      0.33069274
H       2.31791133      1.06040887     -0.38174016
H       3.38211906     -0.16634879     -0.24839645
