14
b3lypvtz=-226992.33730344
C       0.98495970     -0.90592984      0.10105110
C      -0.20098229     -0.31932608      0.88572733
O       0.38693844      1.03170055      0.74764665
C       1.46547017      0.52501189      0.03940299
N       2.46024149      1.10175458     -0.44720390
C      -1.56953299     -0.37144932      0.25125046
O      -2.49520299      0.46676726      0.91974303
H       1.63862968     -1.57892160      0.65048642
H       0.74225436     -1.34120901     -0.86718965
H      -0.24713295     -0.58148378      1.94215067
H       2.44103584      2.10658375     -0.27811013
H      -1.96106053     -1.38859891      0.32123724
H      -1.48942338     -0.11304735     -0.81238667
H      -2.15619454      1.36814788      0.88140457
