14
b3lypvtz=-203700.11359366
C       2.79286263      0.30262858     -0.28363777
C       1.42124164     -0.18351940     -0.21092268
C       0.29672482     -0.60621497     -0.15844897
C      -1.07011165     -1.10523698     -0.08940583
C      -2.15850154     -0.11931879      0.37207777
O      -3.31634535     -0.48043597      0.44817788
N      -1.73919252      1.13222533      0.67272360
H       3.43987724     -0.24430106      0.40482917
H       3.19778336      0.18351710     -1.29043753
H       2.85256750      1.36177896     -0.02505034
H      -1.39499431     -1.47426287     -1.06510030
H      -1.13363151     -1.95999565      0.58809229
H      -2.41822471      1.80670721      0.97968667
H      -0.77005561      1.38642853      0.59681864
