11
b3lypvtz=-236324.69631406
N       1.03553011     -0.68280507      1.55081295
C       0.49616606     -0.20109112      0.51078187
C       1.31158928      0.51221981     -0.57063222
O       2.50169502      0.61932786     -0.42846710
N      -0.89151819     -0.34035448      0.37253136
C      -1.73901750      0.07284922     -0.62698808
O      -1.43426439      0.66776910     -1.63326066
H       2.04057401     -0.50743540      1.51389995
H       0.77214894      0.90126133     -1.44101994
H      -1.31398789     -0.82927144      1.15034984
H      -2.77891545     -0.21246981     -0.39780797
