20
b3lypvtz=-182666.17591701
C      -1.28168695      1.91360072     -0.04165090
C      -0.75682470      0.69129475      0.01334845
C      -1.49648445     -0.47150206      0.63038531
C      -1.82715755     -1.59731984     -0.35950443
C       0.62001214      0.42175452     -0.54739834
N       1.51426709     -0.14440530      0.46122777
C       2.84060640     -0.45420556     -0.05391467
H      -2.27137055      2.12458413      0.34453450
H      -0.74144093      2.74409980     -0.47965759
H      -2.41914496     -0.10189113      1.08201234
H      -0.88597379     -0.88758694      1.43548799
H      -0.92319277     -2.05615526     -0.76115630
H      -2.41991207     -1.22484186     -1.19709133
H      -2.40008066     -2.38311725      0.13533674
H       1.01582288      1.34545592     -0.99722822
H       0.54966810     -0.30954376     -1.35979903
H       1.58955633      0.50316450      1.23704435
H       2.76642090     -1.25258635     -0.79543330
H       3.34673025      0.39823519     -0.53437167
H       3.47403429     -0.81419423      0.75718234
