16
b3lypvtz=-181121.3653319
C       2.84814048      0.13972061      0.23773741
C       1.89576677     -0.58698878     -0.33693976
C       0.49294159     -0.17814079     -0.57005895
N      -0.05657306      1.08680139     -0.08680506
C      -0.50833799     -0.14860977      0.55857568
C      -1.92064384     -0.55869419      0.37905071
C      -2.84371132      0.15243984     -0.25740794
H       2.68113649      1.15300178      0.58315921
H       3.84502176     -0.25436687      0.37929606
H       2.13778456     -1.58569458     -0.68846336
H       0.09229204     -0.47149276     -1.53505448
H       0.61152017      1.56948594      0.50385513
H      -0.07953490     -0.38294090      1.52827836
H      -2.17906865     -1.52231606      0.80785216
H      -3.85611589     -0.21199291     -0.36688181
H      -2.60386921      1.11836904     -0.68182338
