15
b3lypvtz=-191213.17578443
C       2.79223563     -0.70176244     -0.00004062
C       1.74491790      0.12596912     -0.00006114
N       0.44901606     -0.37165369     -0.00002562
C      -0.57209394      0.40113154     -0.00001016
C      -0.54931848      1.91059111     -0.00001890
C      -1.91464634     -0.26363395      0.00001331
N      -2.12426546     -1.51226683      0.00002607
H       3.80352557     -0.32105781     -0.00005891
H       2.64544581     -1.77319776      0.00000366
H       1.90812814      1.20166907     -0.00010328
H      -0.03159952      2.29843515     -0.87971893
H      -1.56021917      2.31445202      0.00014479
H      -0.03130084      2.29845149      0.87949528
H      -2.77682179      0.40518244      0.00003468
H      -1.21929558     -1.99602146      0.00000978
