12
b3lypvtz=-226222.57318257
O       1.13597652      1.32791953     -1.83092151
C       0.10938251      0.93142613     -1.34027567
C       0.04688592     -0.00903052     -0.18589315
C       1.27716510     -0.77325923      0.17996937
O       1.24121682     -1.75179961      0.88846669
C      -0.87419032      0.34689153      0.96343891
N      -1.25656420     -0.67029638      0.02218467
H      -0.88388012      1.24838148     -1.71418328
H       2.21752605     -0.39339681     -0.24837975
H      -0.52258588      0.05817870      1.94676470
H      -1.42725262      1.27681709      0.90741931
H      -1.06367977     -1.59193191      0.41140970
