15
b3lypvtz=-216928.25095364
C       2.14085652      1.20381819     -0.05594603
C       1.25530395      0.05203012     -0.46257550
C       1.32987889     -1.29041286      0.23861822
C       0.14611302     -0.40523252      0.42881365
O      -1.06215262     -0.86853942     -0.16942839
C      -2.07836672      0.00949790     -0.21892252
O      -2.06580627      1.13405472      0.19488576
H       1.69499720      2.15968741     -0.33610961
H       3.12057245      1.13306409     -0.53292244
H       2.30053739      1.21561412      1.02384986
H       1.02993946     -0.00968339     -1.52051073
H       2.01240031     -1.40596452      1.07000049
H       1.18694128     -2.17790072     -0.36163724
H      -0.01425299      0.10015840      1.37049423
H      -2.93875388     -0.47589351     -0.69739076
