12
b3lypvtz=-223834.54001502
C       1.56871935     -1.43871351     -0.15459453
N       0.59400451     -0.98549082     -0.81378112
C       0.10063731      0.30689606     -0.63076855
N       0.55951487      1.36032323     -1.17139548
C      -1.16209528      0.43271786      0.19232351
N      -1.83240810      1.48904845      0.33953761
O      -1.51080142     -0.72362696      0.79728237
H       2.07783079     -0.87488615      0.63187023
H       1.93187915     -2.44049107     -0.36907884
H       1.39255828      1.16392164     -1.72350951
H      -1.40198359      2.24525540     -0.18944131
H      -2.31775586     -0.53495413      1.29755562
