15
b3lypvtz=-214501.11085602
C       3.11936031     -0.26237528     -0.00001264
N       1.79720285      0.32477307     -0.00001012
C       0.79663706     -0.45178700     -0.00000757
C      -0.58401816      0.05090688     -0.00001534
C      -0.88195774      1.51689446     -0.00002048
N      -1.46598483     -0.88116830     -0.00001957
O      -2.76430135     -0.37002663     -0.00004298
H       3.11599507     -1.36010040     -0.00000833
H       3.66777693      0.09078273      0.87615221
H       3.66776824      0.09077531     -0.87618603
H       0.88807091     -1.54417233     -0.00001448
H       0.04486936      2.08267511      0.00008894
H      -1.47684784      1.78082031      0.87576769
H      -1.47664078      1.78085121     -0.87594173
H      -3.30485801     -1.16675714     -0.00003557
