12
b3lypvtz=-223846.51444573
N       2.86374310     -0.57884442      0.01247362
C       1.82331800      0.13508366     -0.06903541
N       0.50040807     -0.28903169      0.09198508
C      -0.58692421      0.56115644      0.04577889
O      -0.50000796      1.76036034     -0.10540117
C      -1.94662644     -0.08988484      0.17599709
N      -2.29123960     -1.25929067     -0.16072928
H       2.65830703     -1.55710499      0.22320332
H       1.89377927      1.19558590     -0.28620462
H       0.34350366     -1.25723696      0.32883051
H      -2.70320650      0.59956609      0.54782212
H      -1.51403041     -1.80393487     -0.54140914
