15
b3lypvtz=-191196.38885807
C      -1.48069259      0.64063907      0.73149552
C      -1.03008955     -0.24145683     -0.40702888
C       0.25940418     -0.04131676     -1.20180146
C       0.04734958     -1.27710430     -0.32998411
N       1.18492365     -0.87254323      0.50579697
C       1.37228900      0.31270372     -0.26182068
N       2.17779179      1.28029945     -0.21616807
H      -0.65491122      0.92458974      1.38345351
H      -2.23226148      0.13208459      1.33913473
H      -1.92410710      1.56199542      0.35059766
H      -1.83735308     -0.54887367     -1.06564529
H       0.27384588      0.05438295     -2.27575428
H      -0.06254492     -2.30622687     -0.63879649
H       1.08779963     -0.81791345      1.51326385
H       2.81855626      1.19874015      0.57325702
