17
b3lypvtz=-217689.47704256
C       1.98699834     -0.55075242      0.01401560
C       0.69432547      0.01583433     -0.54968173
O      -0.13159783     -1.07043611     -0.99353245
C      -1.46787399     -0.86681480     -0.53407386
C      -1.30743473     -0.11421435      0.78268390
C      -0.15162474      0.83017192      0.46162393
O      -0.71794206      2.00660751     -0.11997902
H       2.68650256      0.24939712      0.26506942
H       1.79381156     -1.13965859      0.91233454
H       2.46065884     -1.20186844     -0.72045571
H       0.91725974      0.66063727     -1.40952003
H      -2.03849152     -0.27209878     -1.25592600
H      -1.93785206     -1.84438389     -0.43282349
H      -2.19329647      0.43712536      1.09275931
H      -1.02098295     -0.80274323      1.57904172
H       0.43268265      1.09488105      1.34787612
H      -0.00524279      2.56851604     -0.43941226
