14
b3lypvtz=-226995.27818307
C       2.08632941      0.86115107     -0.23202162
C       1.16838668     -0.10163693     -0.02411379
N       1.49601966     -1.45117363      0.13698989
C      -0.26341059      0.19629041      0.01154421
O      -0.65454008      1.51010593      0.20963276
C      -1.24338545     -0.70137505     -0.16512088
O      -2.56362053     -0.39459028     -0.09205349
H       3.14474447      0.64590093     -0.18462340
H       1.79606264      1.85509372     -0.53572417
H       0.99920918     -1.91829138      0.88107823
H       2.48700008     -1.63376417      0.17218104
H       0.02249426      1.94999000      0.73713073
H      -1.04784303     -1.72831160     -0.42639397
H      -2.63321170      0.54359697      0.13278044
