19
b3lypvtz=-192743.98808273
C      -1.82024786     -1.37673929     -0.39066792
C      -0.90103639     -0.29344698      0.10664045
C      -1.19155746      0.99685967     -0.11518126
N      -0.38850654      2.10751138      0.14529515
C       0.32729687     -0.74127589      0.86530631
C       1.58578517     -0.95832384      0.01423130
N       2.08413710      0.31852341     -0.50919123
H      -1.31658501     -2.05195854     -1.09115914
H      -2.68878332     -0.96387368     -0.90560900
H      -2.18158412     -2.00109914      0.43366701
H      -2.12177083      1.25100293     -0.61333060
H       0.48182214      1.92433041      0.62339592
H      -0.87200459      2.91866295      0.49800045
H       0.09648664     -1.68139467      1.37583548
H       0.57842185     -0.01547704      1.64551566
H       1.37285068     -1.69932044     -0.76947348
H       2.36769869     -1.38379921      0.64814841
H       1.44591733      0.68530296     -1.20679679
H       2.97795965      0.19177100     -0.96841272
