18
b3lypvtz=-205204.18873612
C       3.14091804      0.99754444     -0.51600942
N       2.30962102      0.11227918      0.27564914
C       1.18863637     -0.23309456     -0.19224681
C       0.26293304     -1.14596429      0.55699349
C      -1.10824310     -0.53031681      0.81201260
O      -1.75768156     -0.32362166     -0.42949453
C      -3.03028432      0.27066228     -0.29723266
H       3.35990180      1.89710850      0.06304636
H       2.68750968      1.29142151     -1.47233343
H       4.09761842      0.50952902     -0.71377241
H       0.83344400      0.12251773     -1.16868848
H       0.72854061     -1.41192000      1.50619029
H       0.11644019     -2.06421252     -0.02067392
H      -1.00560102      0.42313982      1.34877832
H      -1.70596820     -1.20184840      1.44338439
H      -3.70560899     -0.35280744      0.30253058
H      -2.96695362      1.26096127      0.17112530
H      -3.44542236      0.37882193     -1.29765880
