15
b3lypvtz=-216917.43183063
O       2.47283141      0.58381104      0.63924040
C       1.74606808     -0.07441786     -0.40169852
C       0.26910905     -0.05082502     -0.17676117
C      -0.56230315     -1.08245958     -0.07940789
C      -1.96545087     -0.60372113      0.13352397
O      -1.86146715      0.81990237      0.21853300
C      -0.51331992      1.22698044     -0.02811720
H       2.28215252      0.13077467      1.46701672
H       2.00027935      0.47576414     -1.31066184
H       2.08911673     -1.10585303     -0.53392775
H      -0.29441268     -2.12739527     -0.15563997
H      -2.41132981     -0.99217803      1.05718308
H      -2.63163855     -0.88442995     -0.69341254
H      -0.15607527      1.84361729      0.80238448
H      -0.46355974      1.84062990     -0.93825477
