15
b3lypvtz=-193624.24896006
C      -2.40785168      0.02320691     -0.12524743
C      -1.08054476      0.04277717      0.03443291
C      -0.27834802      1.25538064     -0.00391276
C       1.06116591      1.21333782      0.06230460
O       1.80680677      0.08248516      0.06786133
C       1.09822991     -1.10395224     -0.32979297
C      -0.26984240     -1.19924384      0.33219190
H      -2.96845913      0.93304213     -0.29807166
H      -2.96982344     -0.90044156     -0.07948361
H      -0.76354572      2.22087118     -0.04519865
H       1.68097317      2.09814215      0.11796100
H       0.99166362     -1.08060443     -1.41913756
H       1.74445109     -1.93559739     -0.05677965
H      -0.78144694     -2.10051302     -0.00829169
H      -0.13257037     -1.28948068      1.41439324
