13
b3lypvtz=-192834.84261294
C      -0.16850469      1.81284485      1.55306553
C      -0.19012585      0.89753427      0.77082839
C      -0.29103003     -0.18340528     -0.15103279
C       0.89975779     -0.81564448     -0.71302458
C       2.16322442     -0.48087873     -0.45242488
C      -1.52790897     -0.61282559     -0.49519881
O      -2.68775791     -0.10964152     -0.04413262
H      -0.12048768      2.61924176      2.24188486
H       0.69951744     -1.62940093     -1.40265286
H       2.98415559     -1.00769106     -0.91735497
H       2.41093599      0.32317945      0.22783882
H      -1.67647081     -1.42856213     -1.18936534
H      -2.49550529      0.61534940      0.57146924
