13
b3lypvtz=-237025.55159274
C       1.27498826     -1.84048694      0.31288955
O       0.25300093     -1.21163267     -0.46242924
C       0.00251902      0.09216845     -0.15984811
C      -1.25070916      0.52642018      0.05392240
O      -2.30780810     -0.31660175      0.09666039
N       1.10823654      0.95313132     -0.25873115
N       0.97905946      2.10350237      0.21099723
H       0.98517868     -1.89256381      1.36633051
H       1.38100502     -2.84734518     -0.08356721
H       2.22343053     -1.30937105      0.22090931
H      -1.42715161      1.58654234      0.17003138
H      -3.12052207      0.19284955      0.16286054
H       1.85688650      2.59718919      0.01059241
