11
b3lypvtz=-210610.12180328
N      -1.75462965      1.84464650      0.00580249
C      -1.25296776      0.80884770      0.00468296
C      -0.61664137     -0.50303613      0.00873397
N      -1.49547207     -1.53400739      0.00389539
N       0.65086238     -0.69790590      0.00772262
C       1.53918312      0.37876145     -0.00775730
N       2.79985030      0.25657497     -0.00123455
H      -1.12929495     -2.46969911      0.04938412
H      -2.48433506     -1.38072008      0.07722961
H       1.11759576      1.38722623     -0.02719320
H       3.04935431     -0.73469424      0.01616189
