15
b3lypvtz=-212106.37744978
C      -0.52635553      1.84359823      0.01456389
N      -0.65269276      0.39214561     -0.01206308
C      -1.91280239     -0.19408106     -0.01337021
N      -2.26963980     -1.41349323     -0.01744303
C       0.51488587     -0.35411129     -0.02339399
N       1.65607538      0.20703669      0.01011953
N       2.77501344     -0.61112476     -0.09175786
H       0.00140573      2.16823153      0.91226265
H       0.03950690      2.19359789     -0.84910284
H      -1.52061623      2.28291181      0.00025583
H      -2.69624124      0.56139792     -0.01146019
H      -1.49494544     -2.07229423     -0.01714253
H       0.38145649     -1.43359571     -0.07262898
H       2.64723767     -1.53044194      0.32566774
H       3.55200590     -0.14345447      0.35186609
