13
b3lypvtz=-213767.7810961
C       2.44730538     -0.34902997     -0.00000785
O       1.46672541      0.68865546     -0.00000281
C       0.18254919      0.28888596     -0.00001606
N      -0.18169648     -0.98416493     -0.00001449
N      -1.53731592     -0.93268462     -0.00000552
H      -2.05610732     -1.79110615      0.00000077
C      -2.01411371      0.33156379     -0.00000878
C      -0.92446687      1.16950294      0.00000324
H       2.34951096     -0.97752300     -0.88670864
H       2.34950994     -0.97752953      0.88668821
H       3.41073496      0.15396415     -0.00000443
H      -3.07019829      0.54130625     -0.00003406
H      -0.91103123      2.24397264      0.00003542
