17
b3lypvtz=-194360.95347221
C       1.88149544      0.50068673     -0.42004708
C       0.47901531      0.16122030     -0.00737670
C       0.01543277      0.22138948      1.42412216
C      -0.09636228     -1.07983372      0.68927319
C      -1.34458954     -1.04532219     -0.19223228
C      -0.72445056      0.17345642     -0.95221120
O      -1.46689330      1.36449051     -1.12121800
H       2.16189541     -0.02135067     -1.33803914
H       2.60174227      0.22765092      0.35339251
H       1.98481558      1.57326708     -0.60412953
H      -0.88494157      0.75308229      1.72027298
H       0.81559046      0.29319472      2.14937312
H       0.43039872     -1.96789444      1.00863236
H      -1.47964623     -1.91643193     -0.83128148
H      -2.28227055     -0.84468403      0.33128577
H      -0.42432160     -0.11864147     -1.95832028
H      -1.66691031      1.72572003     -0.25149637
