15
b3lypvtz=-191202.07659139
C       3.04071905     -0.57532070      0.27786568
C       1.92225550     -0.18286842      0.08633233
C       0.58777829      0.33077017     -0.13147447
N       0.28701454      1.57828658     -0.09918528
N      -0.34865380     -0.62879343     -0.40079099
C      -1.76022949     -0.31602432     -0.56339906
C      -2.51575883     -0.16052502      0.75648942
H       4.03265316     -0.91432370      0.44653246
H       1.11471342      2.13907093      0.06991921
H      -0.07691053     -1.58580389     -0.26385500
H      -2.20275807     -1.11105047     -1.16603087
H      -1.82286033      0.60882429     -1.13537530
H      -3.56587395      0.07001489      0.56652907
H      -2.47246247     -1.07834899      1.34606385
H      -2.08860949      0.65104808      1.34390194
