14
b3lypvtz=-201296.35716594
C      -3.18210651     -0.33746657     -0.09529155
N      -1.73846133     -0.39197288      0.00028839
C      -1.09818533      0.69950998      0.00155649
N       0.27461685      0.75270982      0.01444405
C       1.02744387     -0.47195195      0.21975920
C       2.45350240     -0.24775582     -0.00709924
N       3.57788746     -0.06627083     -0.16473310
H      -3.51451622     -0.85868379     -0.99607637
H      -3.58266838      0.68559785     -0.12372404
H      -3.62787184     -0.85797807      0.75514805
H      -1.56830634      1.68895033     -0.03959750
H       0.70118748      1.61203297      0.31648781
H       0.88831564     -0.88815927      1.22464510
H       0.65917428     -1.22653577     -0.47683127
