16
b3lypvtz=-227768.77147351
C       2.19158176     -0.77039762      0.67595325
N       1.84359348     -0.08813268     -0.56486522
C       0.87450931      0.97509292     -0.41450292
C      -0.54952291      0.61316994      0.01275203
O      -1.30525456      1.37044706      0.56612390
O      -0.88359280     -0.64349552     -0.34877944
C      -2.22557464     -1.04837831     -0.02841024
H       1.33941964     -1.23003606      1.19630559
H       2.66077622     -0.05976335      1.35938006
H       2.92014707     -1.55261336      0.46320526
H       1.52105356     -0.75613282     -1.25214419
H       1.23519803      1.70679944      0.30936769
H       0.77385194      1.50740490     -1.36536334
H      -2.94733838     -0.40874459     -0.53388521
H      -2.31432400     -2.07358508     -0.37534033
H      -2.39428172     -0.99094585      1.04561811
