15
b3lypvtz=-214521.40140623
N      -1.34485730      1.34372282     -0.19533822
C      -1.28825667      0.08483070     -0.04587514
N      -2.29333020     -0.79703098      0.30946682
O      -0.12883449     -0.60655860     -0.19083640
C       1.03884086      0.15485460     -0.43322174
C       1.90379782      0.51099123      0.73000126
C       2.31862787     -0.58062477     -0.23705993
H      -2.28473092      1.69702606     -0.04891190
H      -2.10885137     -1.76429111      0.09556771
H      -3.22976991     -0.49863470      0.09623065
H       0.92943484      0.86071761     -1.24289217
H       1.56248622      0.19827187      1.70651059
H       2.42003533      1.46035244      0.70847421
H       2.24800237     -1.60082624      0.11310982
H       3.12777454     -0.39184492     -0.92850257
