13
b3lypvtz=-216183.23266888
O      -1.73108608     -2.11495622      0.00750504
C      -0.93183416     -1.21959006     -0.00730024
C      -1.33323568      0.21741339      0.26735066
C      -0.22948828      1.22365494      0.21290095
C       1.01770119      0.87362270     -0.05755682
C       1.41985674     -0.53416438     -0.32679111
O       0.36245756     -1.50595258     -0.27718197
H      -1.82496200      0.22040133      1.24457970
H      -2.12630450      0.45941937     -0.44623165
H      -0.48342389      2.25944493      0.40354064
H       1.81464323      1.60657007     -0.09585561
H       2.17396781     -0.86362895      0.39420720
H       1.87160806     -0.62223454     -1.31936679
