13
b3lypvtz=-213773.07603986
C       2.86227638     -0.61898977      0.03022558
C       1.79053498      0.16210246     -0.06433542
N       0.47711360     -0.28150655      0.08760178
C      -0.60953308      0.55462031      0.04523310
O      -0.53544208      1.75821646     -0.10929425
C      -1.96189578     -0.10652442      0.18378757
N      -2.30625908     -1.27287397     -0.16682789
H       2.79254774     -1.67933654      0.23832251
H       3.84841822     -0.20209895     -0.10188219
H       1.85176207      1.22072015     -0.27036321
H       0.32621115     -1.24940582      0.32382482
H      -2.71803762      0.57113403      0.57807733
H      -1.52896250     -1.80221840     -0.56867373
