18
b3lypvtz=-205212.62462208
C      -1.15645751     -1.74795592      0.09774718
C      -0.70341750     -0.31817981     -0.18804277
C      -1.81280998      0.69081148      0.13093159
N       0.55720179     -0.06400161      0.53873827
C       1.25192752      1.14761325      0.22206206
C       2.50379874      1.05278958     -0.23085329
O       3.15049514     -0.12191001     -0.40082921
H      -0.37986637     -2.46295802     -0.17331696
H      -2.06189649     -1.98952620     -0.46057055
H      -1.37983849     -1.87800188      1.16053943
H      -0.45619093     -0.23527599     -1.24953628
H      -2.08840278      0.63837267      1.18795392
H      -2.70844517      0.48345797     -0.45795952
H      -1.50201377      1.71232620     -0.08911346
H       0.38974698     -0.14006096      1.53743152
H       0.78612814      2.11991818      0.34085775
H       3.10347819      1.91265650     -0.49542363
H       2.50646248     -0.79977545     -0.12671604
