13
b3lypvtz=-213775.61536362
N       1.26554127     -0.01931868     -0.15739516
C       0.47619411     -1.05838044     -0.69513563
C       0.67746224     -2.40212569     -0.49437290
O       1.56041665     -3.05748449      0.32401364
N      -0.23770910     -3.10074628     -1.25093617
H      -0.34323557     -4.09843020     -1.22514221
C      -1.03064456     -2.21357241     -1.92779667
C      -0.60726256     -0.94307852     -1.61383444
H       0.75479250      0.85034241     -0.09965205
H       1.61029678     -0.25272674      0.76488049
H       2.44167955     -3.03025353     -0.06755808
H      -1.82923050     -2.54757696     -2.56561006
H      -1.02140082     -0.02654847     -2.00066077
