11
b3lypvtz=-213006.89149031
N       3.47529629     -0.73804681      0.72307078
C       2.38344399     -0.46158762      0.49147725
C       1.01872108     -0.11933808      0.20100744
N       0.54043115      1.04797024      0.29791277
C      -0.87504159      0.93491012     -0.09202388
C      -1.07805620     -0.56218670     -0.42713266
O       0.23527944     -1.15162135     -0.19694929
H      -1.06614285      1.59015163     -0.94222251
H      -1.50238434      1.27400433      0.73261254
H      -1.78568929     -1.06683736      0.22742499
H      -1.34585769     -0.74761839     -1.46527743
