13
b3lypvtz=-239645.03965309
C      -2.49020609      0.38010704     -0.85470511
C      -1.28337680     -0.17071687     -0.17274722
C      -0.02186135      0.16738205     -0.44266433
F       0.25817892      1.07709320     -1.40007482
N       1.05000398     -0.38529782      0.23862287
N       2.17935398      0.02223702     -0.12050849
N       3.18214362     -0.58773136      0.52369598
H      -3.06945479     -0.41797443     -1.32744190
H      -3.15676073      0.86591064     -0.13656656
H      -2.22482977      1.10720793     -1.61925032
H      -1.40900009     -0.90709447      0.60881672
H       4.04315691     -0.06921132      0.49878914
H       2.94275222     -1.08181163      1.37763401
