12
b3lypvtz=-244698.21435385
C      -1.31541930     -0.40610334      0.03877317
N      -2.40775833     -0.62918840     -0.58137015
N      -1.21341061     -0.53550529      1.39649421
N      -0.13904225      0.03019530     -0.58666657
N       1.01005411      0.17048476      0.09631430
N       1.95292801      0.54395455     -0.60591617
O       3.08837599      0.64852115      0.20454320
H      -2.33199676     -0.44685862     -1.57701560
H      -0.29638695     -0.62492931      1.79785025
H      -1.96413996     -1.04963416      1.82284322
H      -0.13978796      0.20874464     -1.58238052
H       3.75658401      0.94553312     -0.42346934
