17
b3lypvtz=-194366.22616449
O       3.23213936      0.73310828     -0.02749675
C       2.11967771      0.29404629      0.76069398
C       1.16089839     -0.54666815     -0.02422910
C      -0.12751203     -0.27633908     -0.18961383
C      -1.07534693      0.78380006      0.35826929
C      -2.26325054     -0.12062651     -0.08609451
C      -1.26335871     -1.00836588     -0.88419115
H       2.88030958      1.16087293     -0.81478650
H       1.60148794      1.14731568      1.21143614
H       2.56659946     -0.28493904      1.57194977
H       1.58225390     -1.43026779     -0.49626046
H      -1.00323660      1.01684141      1.42033966
H      -1.02960131      1.72216553     -0.19977195
H      -3.05172222      0.36140513     -0.66084806
H      -2.71395321     -0.65201924      0.75050455
H      -1.32095764     -2.08620418     -0.73080905
H      -1.29422715     -0.81422544     -1.95899202
