17
b3lypvtz=-215280.17610429
C       0.99170952      2.00660480     -0.02037498
N      -0.21249777      1.19317157     -0.07922458
C      -0.15583562     -0.03397620      0.20493937
C       1.04150441     -0.86152525      0.62881545
N       1.86357394     -1.19677165     -0.54266065
O      -1.26340390     -0.81968190      0.13738507
C      -2.47146581     -0.18447082     -0.28847713
H       0.84496183      2.89314928     -0.63692261
H       1.17374790      2.35494277      1.00181290
H       1.88293190      1.48404857     -0.37576158
H       0.67321944     -1.73031599      1.18407597
H       1.65300842     -0.26783668      1.30947003
H       2.68694185     -1.71095359     -0.25277192
H       1.34457535     -1.80235355     -1.16804442
H      -3.22600839     -0.96705839     -0.29796934
H      -2.75316540      0.61175939      0.40027255
H      -2.35131767      0.24790363     -1.28182013
