18
b3lypvtz=-181916.21529233
C       2.08642177     -0.57919993      0.29926667
C       0.80864530     -0.04953163     -0.35040168
C       0.61012864      1.44965703     -0.27732786
C      -0.66480272      1.70958723      0.01630267
N      -1.44153391      0.55256866      0.16098185
C      -0.49464945     -0.57718437      0.31355264
C      -1.03920613     -1.87107409     -0.27089629
H       2.97180802     -0.18601551     -0.20387489
H       2.13928979     -0.28461404      1.34920568
H       2.13710991     -1.66953049      0.24810125
H       0.81135916     -0.36077587     -1.40505375
H       1.35886161      2.18028041     -0.54032507
H      -1.14319591      2.67616069      0.08900952
H      -2.16680466      0.59859024      0.86275006
H      -0.28394883     -0.72557026      1.38276759
H      -1.95300849     -2.18342459      0.23880172
H      -1.26967029     -1.74334039     -1.32923976
H      -0.31110682     -2.67856910     -0.16753135
