14
b3lypvtz=-203664.61207575
C       1.35713902      2.03801911     -0.25956383
C       0.97077073      0.93355178      0.00165649
C       0.52848760     -0.42367221      0.33042913
C       1.63694711     -1.45322355      0.13874236
O      -0.56803696     -0.84721630     -0.50423945
C      -1.79758187     -0.29925068     -0.30272736
N      -2.17788319      0.61588445      0.47240324
H       1.68986281      3.01815008     -0.49640283
H       0.19120165     -0.44180651      1.37226066
H       1.27109449     -2.44125787      0.41494989
H       1.95676871     -1.47080311     -0.90184041
H       2.49192127     -1.20069365      0.76454577
H      -2.50511728     -0.79846226     -0.95952379
H      -1.42901610      1.03863972      1.01557914
