15
b3lypvtz=-191215.83178731
N      -2.52147895     -1.22200475      0.26449415
C      -1.83938540     -0.34390270     -0.03818946
C      -0.99951649      0.75434425     -0.42210817
C      -0.09871733      1.41237846      0.60979863
C       0.51135443      0.59637749     -0.48642997
C       1.17547106     -0.72550404     -0.18970215
N       2.58886432     -0.50547973      0.12859162
H      -1.44967512      1.40097425     -1.16321457
H      -0.11824010      0.98782735      1.60450761
H      -0.02360638      2.48974191      0.57536798
H       0.98182018      1.15067267     -1.28860033
H       1.12911141     -1.35632865     -1.08038365
H       0.61281044     -1.24790626      0.59525727
H       3.07342199     -1.39034068      0.21643582
H       2.68241895     -0.03030856      1.01898223
