14
b3lypvtz=-203675.66073545
C      -1.57974562     -0.92028310      0.65405029
C      -0.87278863      0.28455790      0.14539001
C       0.42407681      0.35271025     -0.24028816
C       1.32436790     -0.74037199     -0.21564388
C       2.14462031     -1.62423824     -0.22124889
N       0.87300109      1.65082294     -0.70119855
O      -1.64640521      1.38639373      0.08245643
H      -2.43550887     -1.14654514      0.01422759
H      -1.96821849     -0.72851415      1.65661956
H      -0.91772077     -1.78093953      0.68474842
H       2.85588759     -2.41137107     -0.22148176
H       1.21030164      1.60138173     -1.65636547
H       1.64258541      1.99227609     -0.13559254
H      -1.05445318      2.08412056     -0.26451226
