14
b3lypvtz=-180400.07117858
N      -2.67621648     -0.00000800     -0.54097461
C      -1.66737730     -0.00000363      0.01359389
C      -0.38437234     -0.00000009      0.70968159
C       0.47886948      1.24940242      0.32646477
C       1.62309215      0.66334547     -0.45475996
C       1.62309404     -0.66334444     -0.45475754
C       0.47887310     -1.24940157      0.32646917
H      -0.60328752      0.00000146      1.77733379
H      -0.09577284      1.97664844     -0.24889980
H       0.82920684      1.76715652      1.22366064
H       2.36335739      1.28373747     -0.94126795
H       2.36336063     -1.28373578     -0.94126383
H      -0.09576745     -1.97665144     -0.24889209
H       0.82921231     -1.76715084      1.22366693
