14
b3lypvtz=-180357.16831193
C      -0.36878445      2.30531452      0.00002100
C      -0.17651474      1.11787009      0.00003802
C      -0.02589624     -0.30571030      0.00005627
C       1.17721996     -0.90848271      0.00007330
C       2.50677198     -0.24071692      0.00008746
N      -1.16649277     -1.14339992      0.00004989
C      -2.33557601     -0.65081717      0.00004562
H      -0.51764052      3.35643941     -0.00000029
H       1.15407697     -1.99203692      0.00008727
H       3.08810721     -0.54534592      0.87541235
H       2.42447602      0.84428980     -0.00005601
H       3.08824432     -0.54557520     -0.87506414
H      -2.54820730      0.42078132      0.00005951
H      -3.17990142     -1.33419210      0.00006076
