15
b3lypvtz=-214500.79482342
C      -1.81503613     -1.22801318     -0.42116349
C      -1.41250220      0.15473641     -0.01355436
C      -0.19059419      0.60633265      0.33666304
C       0.98560357     -0.25881872      0.34285634
N       2.13475584      0.23049409      0.60293352
O       3.13318749     -0.75009354      0.54716837
N       0.03382632      1.91770731      0.76437799
H      -0.99372751     -1.94164530     -0.41287300
H      -2.59330950     -1.61874760      0.24171144
H      -2.23918877     -1.23200669     -1.43015263
H      -2.22093844      0.88047398      0.00986898
H       0.87992295     -1.31399050      0.11684842
H       3.93029608     -0.25864854      0.76956422
H      -0.62456624      2.59565222      0.41648638
H       0.99227072      2.21656742      0.67116163
