17
b3lypvtz=-191965.68650094
C      -1.20398659      1.22006573     -0.60708344
C       0.28725895      1.42762771     -0.20789094
C       0.31597858     -0.03291817      0.19917409
C       1.29174824     -0.90674049      0.42491179
N       2.65780154     -0.61120984      0.49184330
C      -1.19154378     -0.16453442      0.10481186
N      -1.71381794     -1.28613960     -0.67741808
H      -1.32715660      1.08961723     -1.68089239
H      -1.91992560      1.95596043     -0.24284066
H       0.96367592      1.73051136     -1.01152830
H       0.41893667      2.12641058      0.62294164
H       1.05749618     -1.94462043      0.63697858
H       2.90922225      0.27986230      0.08851802
H       3.25955791     -1.34396160      0.14748431
H      -1.65956078     -0.08577470      1.09808881
H      -2.72858461     -1.28984368     -0.63900959
H      -1.41710036     -2.16431238     -0.26533378
