12
b3lypvtz=-202913.20427616
C       2.59556205     -0.68369183      0.01759042
C       1.49723726     -0.36387001     -0.34379846
C       0.16887730      0.01286502     -0.76555403
C      -0.57937423      1.11422961      0.05483866
N      -1.62799551      0.12209229      0.30537442
C      -1.01939342     -0.92174961     -0.33174796
O      -1.30488741     -2.07313984     -0.49302751
H       3.56559421     -0.97561983      0.33432943
H       0.13441973      0.19828147     -1.84000418
H      -0.90562637      1.97681241     -0.52584029
H      -0.04603227      1.43714774      0.94749392
H      -2.47828133      0.15664258      0.84644559
