15
b3lypvtz=-212105.32348487
C      -2.22889639     -1.26925394      0.17016193
N      -1.94729903     -0.11152723     -0.26143475
C      -0.64414988      0.38022860     -0.06962277
N      -0.57897794      1.74431817      0.12893650
N       0.37294088     -0.40318686     -0.10250828
N       1.60619260      0.26074218      0.04180871
C       2.71574418     -0.67889210     -0.05229120
H      -3.21705014     -1.67360734     -0.03189440
H      -1.51837002     -1.88231865      0.72674847
H      -1.41151800      2.23349345     -0.16011876
H       0.28459879      2.15320723     -0.20612980
H       1.63225689      0.74935995      0.93495908
H       2.63969983     -1.50748221      0.66138023
H       3.64545632     -0.13725319      0.12428815
H       2.74520892     -1.09613506     -1.05770411
