15
b3lypvtz=-214534.3978679
N      -2.36185713     -0.12200193      0.01664541
C      -1.09652327     -0.02472787     -0.03049464
N      -0.35424057      1.14579872     -0.08253448
C       1.07931461      1.23507390      0.17236017
C       1.74615309     -0.04394901     -0.30623605
C       0.97714210     -1.21735366      0.26723073
O      -0.39751450     -1.18692351     -0.13166090
H      -2.80493151      0.79211140      0.01902187
H      -0.89017102      1.96838877      0.13688575
H       1.47295268      2.10496593     -0.35605488
H       1.28881307      1.37812119      1.24114228
H       1.73088161     -0.09427158     -1.39658037
H       2.78634746     -0.07606537      0.02165348
H       1.35422906     -2.17203878     -0.09391565
H       1.03505332     -1.21974719      1.36194229
