14
b3lypvtz=-180400.4331637
C       2.61158738      0.32139422     -0.00000442
C       1.58566709     -0.52373565      0.00000453
N       0.22692641     -0.19424699      0.00000428
C      -0.34061533      1.06425767      0.00000331
C      -1.70157721      0.92082383     -0.00000411
C      -1.98804735     -0.47515134     -0.00000161
C      -0.78967946     -1.13269314     -0.00000061
H       3.61819096     -0.06715866     -0.00000030
H       2.49336938      1.39498385     -0.00001397
H       1.75068219     -1.59302518      0.00001450
H       0.26789665      1.94965194      0.00002036
H      -2.41666609      1.72607928     -0.00002798
H      -2.96093677     -0.93612425      0.00001908
H      -0.55891385     -2.18375157     -0.00002105
