11
b3lypvtz=-210543.09530754
C       3.02808166     -0.46278905     -0.20678288
C       1.94643875     -0.15365859      0.20962176
C       0.64096556      0.21823512      0.68297471
N       0.49683139      0.79050771      1.80771302
N      -0.39124466     -0.18813768     -0.23258305
N      -1.41428495      0.52495277     -0.14444246
N      -2.42619504      0.10900079     -0.89069308
H       3.99168402     -0.73187494     -0.56122636
H      -0.49282782      0.97690265      1.97719392
H      -2.23841406     -0.60226054     -1.58956564
H      -3.14103486      0.79650157     -1.05220995
