17
b3lypvtz=-194364.11399898
C      -2.72324460      0.49120788     -0.11111797
C      -1.64183885     -0.09459212      0.38849684
C      -0.32811426     -0.15853533     -0.30644267
O       0.23586079     -1.50064501     -0.34274995
C       1.51950087     -1.01648303      0.11514446
C       0.93200245      0.36977950      0.43174876
C       1.61907529      1.60851540     -0.10919508
H      -2.71580389      0.94547632     -1.09515745
H      -3.65243259      0.53942597      0.44121807
H      -1.67435901     -0.55871885      1.36985407
H      -0.41631701      0.24759169     -1.32122170
H       1.90185568     -1.60313118      0.95255145
H       2.26031461     -1.01565349     -0.69187989
H       0.73287183      0.48101736      1.49862060
H       2.56614670      1.78982120      0.40358965
H       0.99607297      2.49491367      0.02761878
H       1.83076401      1.50807803     -1.17580798
