16
b3lypvtz=-181138.45113475
C       3.02973775      0.22941802      0.00002095
N       1.76243933      0.32416884      0.00011256
C       1.01536350     -0.84867600     -0.00020447
C      -0.32928354     -0.90150544     -0.00025652
C      -1.34730066      0.15566061     -0.00001521
C      -1.08868371      1.46944195     -0.00003828
C      -2.76989271     -0.35387237      0.00023241
H       3.55706064     -0.73215963     -0.00028165
H       3.63300494      1.13213386      0.00029794
H       1.56924935     -1.79021564     -0.00042272
H      -0.73461450     -1.90840703     -0.00049666
H      -1.90184769      2.18436807      0.00015502
H      -0.07927194      1.84839070     -0.00021666
H      -3.48604799      0.46628267      0.00049951
H      -2.96397471     -0.97639525      0.87813991
H      -2.96436004     -0.97615837     -0.87775913
