13
b3lypvtz=-239471.01440852
C      -0.14827024      0.41140386      0.01845011
C      -1.41369796     -0.39629644     -0.19750438
O      -2.49627684      0.52853319     -0.22017295
C       1.09599261     -0.42572442      0.06730905
O       1.12844438     -1.63033676     -0.04880672
C       2.43360673      0.29930685      0.28106269
O       2.53399839      1.48925458      0.40920117
H      -0.02996502      1.16309473     -0.76835884
H      -0.21266817      0.99126849      0.94459419
H      -1.34430243     -0.95303363     -1.13752091
H      -1.53052931     -1.12816033      0.60811471
H      -3.31437230      0.04242360     -0.35551596
H       3.29804016     -0.39173372      0.30468079
