12
b3lypvtz=-254528.2626932
O       0.89928476      1.87045332      0.05694222
C       0.86697081      0.68443080     -0.03824012
C       1.83441071     -0.46924006      0.22572596
O       0.79090085     -1.40519048     -0.14516597
C      -0.17152629     -0.36732111     -0.45740753
C      -1.43465763     -0.51726917      0.37383753
F      -2.40678628      0.34922396     -0.10193195
H       2.69497011     -0.50921336     -0.44708624
H       2.16501419     -0.59024108      1.25999126
H      -0.42932855     -0.33916963     -1.52093431
H      -1.79831230     -1.54273440      0.28139031
H      -1.25704738     -0.29138379      1.42679983
