13
b3lypvtz=-262788.26634622
C      -2.45419769     -0.33158401     -0.02152235
O      -1.07507773     -0.55400474     -0.30837305
C      -0.20333545      0.33294585      0.35730702
O      -0.34687370      1.65520139     -0.03891513
C       1.21960103     -0.17003107      0.06178999
O       2.13221751      0.58953257     -0.11694477
O       1.35607218     -1.49875479      0.03544821
H      -2.64613082     -0.41905706      1.05317912
H      -2.76561513      0.65498913     -0.36556166
H      -3.01261294     -1.09803841     -0.55301398
H      -0.39409151      0.26734596      1.43985404
H       0.49386478      1.92891192     -0.43520668
H       0.46483846     -1.88511974      0.02816523
