15
b3lypvtz=-191207.6925941
C      -1.34147391      1.24427653      0.71919034
C      -0.56193843      0.15509130      0.01235571
C       0.17802038      0.42312890     -1.26521661
N       0.89896482      0.31010416     -0.01348121
C       1.75192117     -0.85868373      0.17519384
C      -1.11203874     -1.17558694      0.17072551
N      -1.55713565     -2.22526817      0.33550998
H      -1.37964304      1.05513872      1.79242019
H      -2.36364308      1.29725122      0.34276532
H      -0.85022677      2.20146109      0.55435342
H       0.11608558      1.41420909     -1.69886958
H       0.25234159     -0.39314122     -1.97674366
H       2.73443376     -0.62966952     -0.23734874
H       1.37067778     -1.76703690     -0.30563564
H       1.86365451     -1.05127453      1.24185666
