11
b3lypvtz=-236298.45848633
O      -2.10568645      0.68553057      0.28330693
C      -1.38715728     -0.51767867      0.08371446
C       0.05916078     -0.25576284     -0.20181714
N       0.70646503     -0.77575482     -1.20219412
O       2.00959154     -0.25552256     -1.05287153
C       1.96789245      0.52586967      0.02422868
N       0.81469681      0.57650967      0.60100151
H      -1.64940999      1.19473751      0.96292251
H      -1.45720312     -1.17607189      0.95849445
H      -1.83709190     -1.03131920     -0.76303635
H       2.87884212      1.02926255      0.30605060
