17
b3lypvtz=-191955.49694563
C       1.49582360      1.54723264     -0.06777024
C       1.74956142      0.06824875     -0.22058859
C       1.34303179     -0.90107294      0.84790967
C       0.61389713     -0.92916829     -0.47011934
C      -0.79591128     -0.50502068     -0.59252530
N      -1.46947521     -0.04265544      0.38221858
N      -2.74053642      0.43159735      0.13217760
H       1.47213740      2.04888157     -1.03791543
H       2.28741429      2.00992989      0.52614516
H       0.54702170      1.73738966      0.43248320
H       2.66385497     -0.17546727     -0.74983248
H       0.78730731     -0.50734648      1.68762285
H       1.99567635     -1.73143918      1.08090667
H       0.87229108     -1.73522351     -1.14629069
H      -1.24385683     -0.58704178     -1.59104379
H      -3.30549770      0.33438639      0.96247421
H      -3.19489361      0.00122432     -0.67109108
