12
b3lypvtz=-226218.63628853
C       3.15584901      0.56903607     -0.28004743
C       2.04656594      0.11539891     -0.25970737
C       0.70859357     -0.47313521     -0.24853044
N      -0.29826815      0.48703697      0.19564944
C      -1.49353140      0.10508568      0.24864693
O      -2.49939688      0.91714168      0.64702021
O      -1.94957477     -1.12297328     -0.06894865
H       4.13558082      0.97594152     -0.29620748
H       0.71847136     -1.35605728      0.40090175
H       0.47896630     -0.84162989     -1.25495467
H      -2.09736316      1.77100310      0.85550543
H      -2.90589263     -1.14684828      0.06067228
