14
b3lypvtz=-224611.6257721
C       2.98806850      0.22900626     -0.00004223
N       1.53234950      0.30130471     -0.00003970
C       0.89239499     -0.78912257      0.00010855
N      -0.48338323     -0.88050199      0.00007628
C      -1.38936390      0.17682775     -0.00002745
N      -1.18065536      1.41890206     -0.00009896
O      -2.64844954     -0.34127384     -0.00002892
H       3.39658506      1.23761902      0.00055508
H       3.37176801     -0.28629567      0.88614298
H       3.37170673     -0.28518511     -0.88689449
H       1.36638952     -1.77754809      0.00027678
H      -0.88793885     -1.80123177      0.00016789
H      -0.18281966      1.61407814     -0.00009105
H      -3.24026576      0.42249509     -0.00009377
