18
b3lypvtz=-181905.49764387
C      -2.17937770      1.31465840      0.13532122
C      -1.94369220      0.00909861      0.17495649
C      -1.01127485     -0.73699433     -0.73383271
C       0.09199257     -1.50666931      0.01432702
C       1.10207826     -0.60875066      0.74843941
C       1.95622389      0.19984692     -0.19027800
N       2.11068198      1.45602553     -0.22897896
H      -2.87503427      1.78665658      0.81681699
H      -1.68941377      1.95774394     -0.58664591
H      -2.46022742     -0.59433814      0.91826546
H      -0.56543706     -0.04485107     -1.45224601
H      -1.59062322     -1.46178453     -1.31562731
H      -0.36820484     -2.18409320      0.73837371
H       0.62737036     -2.14018776     -0.69823195
H       1.76563984     -1.24751231      1.34148131
H       0.58782960      0.05891729      1.44361475
H       2.51090297     -0.38583908     -0.93103225
H       1.54968086      1.90918612      0.49702272
