16
b3lypvtz=-225312.88568144
C      -1.26758139      1.14655472      0.28022463
C      -0.79235879     -0.16584258     -0.35118109
C      -1.23064792     -1.38825285      0.45194580
N       0.65925148     -0.18620702     -0.57247972
N       1.43222051     -0.19220305      0.52280390
N       2.62516197      0.10648970      0.46137797
O       3.01553135      0.49545272     -0.88137930
H      -0.96377998      2.00414001     -0.32261682
H      -2.35532718      1.16178248      0.36623680
H      -0.84261395      1.26371394      1.27813210
H      -1.21519849     -0.24395805     -1.35571451
H      -0.91113718     -2.30728124     -0.03910177
H      -2.31693670     -1.40406431      0.54612189
H      -0.79976127     -1.36846440      1.45231603
H       1.02415102      0.34937957     -1.34962706
H       3.93902653      0.72876037     -0.74652633
