18
b3lypvtz=-205203.45500184
C      -0.77894995     -0.05588712      1.55736783
C      -0.72445481     -0.01536990      0.04638544
C      -2.07803286     -0.09525537     -0.62888808
C       0.42241495     -0.68886344     -0.69678431
N       1.52222069     -1.23878136      0.06356677
C       0.32917815      0.82363208     -0.63904117
O       1.30179612      1.49575469      0.09992409
H       0.19995817      0.07702433      2.01131626
H      -1.19479805     -1.00432417      1.90925788
H      -1.42488869      0.74291370      1.92883490
H      -2.58269091     -1.03710230     -0.39548499
H      -1.99200379     -0.02740086     -1.71493314
H      -2.72381566      0.72133471     -0.29646889
H       0.16336497     -1.18381494     -1.62861051
H       2.27315279     -1.53452426     -0.54721182
H       1.24402024     -2.03733863      0.61990093
H       0.04588272      1.36853077     -1.53152399
H       1.86868291      0.80064305      0.47298181
