12
b3lypvtz=-179613.59580899
C      -2.16191860      1.26921151      0.00000786
C      -1.49736736      0.10732619     -0.00000219
C      -2.17631929     -1.24102031     -0.00000051
C      -0.07519426      0.09785197     -0.00000995
C       1.13265073      0.04180791     -0.00001057
C       2.49566170     -0.00627282     -0.00000634
N       3.65229579     -0.04882682      0.00001979
H      -1.64480950      2.21796312     -0.00000422
H      -3.24338081      1.28755193      0.00000111
H      -3.25869148     -1.12460199      0.00001139
H      -1.88587379     -1.81999009      0.87839729
H      -1.88589213     -1.81998061     -0.87841066
