17
b3lypvtz=-217681.90060612
C      -3.15872913     -0.33639699     -0.10300161
C      -1.66572721     -0.42975468     -0.06606633
C      -0.85393215      0.54033888      0.33757846
C       0.64688119      0.47261086      0.36411735
O       1.21956713      1.58611998     -0.30857989
O       1.07469602     -0.74882450     -0.17580512
C       2.45704076     -1.01167167      0.01406680
H      -3.51425284      0.63551014      0.24034948
H      -3.61317035     -1.10813226      0.52465544
H      -3.53596693     -0.50048408     -1.11627350
H      -1.22528624     -1.36500954     -0.39301644
H      -1.25477360      1.48983691      0.67854961
H       1.02061412      0.57402986      1.39146163
H       0.81922365      1.62908998     -1.18549439
H       3.07767149     -0.25429895     -0.46908997
H       2.70765377     -1.04882489      1.08058894
H       2.65716230     -1.98379307     -0.43161848
