14
b3lypvtz=-224566.06866587
C      -0.52382227     -1.08376232      1.15849964
C      -0.45053677     -0.07228779      0.06010500
C      -1.53626886      0.43247608     -0.53522050
O      -1.41175620      1.36452868     -1.54534809
N       0.81141068      0.35489237     -0.35239217
N       1.92968138     -0.10557488      0.19562587
N       2.96774498      0.39330642     -0.30429571
H      -0.00362235     -2.00352696      0.88524558
H      -0.05291005     -0.71299439      2.07062962
H      -1.56452467     -1.32089491      1.37347023
H      -2.53218352      0.13029601     -0.24775245
H      -2.28146407      1.61943009     -1.85963685
H       0.90257292      1.04110801     -1.09581392
H       3.74567880     -0.03719641      0.19688374
