16
b3lypvtz=-181159.34150245
C       2.42046710      0.09841981      0.00000120
C       0.92231048      0.10496334     -0.00000107
C       0.17184217      1.21340826      0.00000168
C      -1.33974636      1.20303173     -0.00000203
C      -1.86382674     -0.21314351      0.00000315
C      -1.05438044     -1.27342931      0.00000031
N       0.32733983     -1.15477202     -0.00000942
H       2.81141786      1.11331402      0.00000671
H       2.81118899     -0.41897344     -0.88138968
H       2.81118673     -0.41898152      0.88138847
H       0.67565189      2.17092712      0.00000532
H      -1.72707852      1.75460916     -0.86906948
H      -1.72708242      1.75461657      0.86905881
H      -2.93284851     -0.37590666      0.00000817
H      -1.43096048     -2.28710416      0.00000330
H       0.90136544     -1.97573838      0.00001258
