12
b3lypvtz=-247106.00028972
C      -2.17203072      0.25330896     -0.17727843
C      -0.85568550     -0.45982889     -0.40589086
O      -0.76472684     -1.51871523     -0.97649245
N       0.24043316      0.22274645      0.10479172
N       1.49632276     -0.28469423     -0.02013430
N       2.34762673      0.44926617      0.48872518
O       3.60657665     -0.07550480      0.35397348
H      -2.07898483      1.19916949      0.35517591
H      -2.63797769      0.43379403     -1.14550425
H      -2.82921800     -0.40920578      0.38510767
H       0.14403517      1.10996268      0.58124366
H       3.50362912     -0.92029886     -0.12466737
