15
b3lypvtz=-191188.676045
C       1.77525658      0.40880907      0.31237920
C       0.53938287      0.15299888     -0.53512935
C      -0.15744574     -1.22421719     -0.49358420
C      -1.47982864     -0.59636634     -0.11647091
C      -0.82149631      0.75491682     -0.13520821
N      -1.16684745      1.96023287     -0.01247805
N      -0.75098195     -1.49091535      0.79779861
H       2.64661338     -0.10483166     -0.09765907
H       1.64187970      0.07334829      1.34293057
H       1.99327819      1.47673403      0.34378892
H       0.72908882      0.44948828     -1.57084321
H       0.01328323     -2.05470138     -1.16349200
H      -2.49237274     -0.85717717     -0.39185354
H      -2.17014636      2.04328186      0.16132819
H      -0.29966358     -0.99160101      1.55849305
