16
b3lypvtz=-204434.17820483
C       1.59929756      1.13541507      0.36913660
C       0.75718280     -0.10438374      0.29808258
N       1.38198495     -1.25907140      0.79465911
C      -0.50341683     -0.09332573     -0.12760691
C      -1.59235963     -1.11894051     -0.31423685
O      -2.48870460     -0.08616275     -0.79951118
C      -1.48081052      0.94557446     -0.61601719
H       2.49835208      1.03396755     -0.24726116
H       1.92829608      1.31881969      1.39506396
H       1.05192238      2.00870888      0.02101598
H       0.92529991     -2.12571374      0.55223507
H       2.37182833     -1.30946858      0.60239736
H      -1.41790905     -1.89401851     -1.07146007
H      -1.98098938     -1.59565167      0.59399669
H      -1.80740329      1.69818498      0.11082922
H      -1.24257081      1.44616600     -1.56122320
