20
b3lypvtz=-205979.75647248
C      -2.06024758      0.63714909     -0.54378821
C      -0.61689481      0.12005423     -0.47610986
C      -0.58926819     -1.18191440      0.34138127
N       0.64492993     -1.96106675      0.13750789
C       0.31195520      1.23725905      0.04094428
C       1.82415973      1.03387531     -0.08861021
O       2.37872539      0.12093471      0.83605178
H      -2.12456855      1.53944256     -1.15309865
H      -2.43231205      0.88681425      0.45341608
H      -2.73434845     -0.10652231     -0.97295245
H      -0.30515239     -0.12951436     -1.49926775
H      -0.65448112     -0.94101115      1.40527692
H      -1.48189478     -1.76788246      0.09160816
H       0.64609244     -2.78600859      0.72589295
H       0.70397250     -2.28513240     -0.82156926
H       0.08110506      1.44236439      1.09177240
H       0.06248552      2.14831928     -0.51377254
H       2.06393141      0.74741937     -1.12457506
H       2.31743690      1.99094979      0.09402975
H       1.96457383     -0.74522959      0.64866252
