17
b3lypvtz=-215273.30239689
C      -1.61391336     -1.37836761     -0.37112938
C      -1.13793094      0.07410465     -0.33253053
C      -1.84965520      0.85785315      0.78499743
C       0.36471653      0.20214477     -0.19509162
N       0.93064746      1.39446927     -0.57757172
N       1.03443974     -0.79968094      0.24304230
O       2.42089006     -0.45346749      0.33679818
H      -1.14122024     -1.92865029     -1.18355675
H      -2.69536886     -1.40900552     -0.51425398
H      -1.37347761     -1.89282088      0.55833891
H      -1.39566752      0.54281881     -1.28896440
H      -2.93011333      0.83577188      0.63537118
H      -1.63135048      0.41379555      1.75755429
H      -1.54163833      1.90446646      0.81871521
H       1.87072621      1.55572528     -0.25488039
H       0.33462385      2.20257057     -0.60849588
H       2.80342802     -1.26172767      0.68716615
