20
b3lypvtz=-182677.09338331
C      -3.40282794     -0.12928588      0.11415023
C      -2.13710163      0.64255580     -0.28248174
C      -0.89482901      0.02606394      0.28735158
N       0.04585738     -0.41123433     -0.43157739
C       1.20364605     -1.00973814      0.21110136
C       2.50664969     -0.35548862     -0.25718572
C       2.65134995      1.10229471      0.17565636
H      -4.29498468      0.36446744     -0.27243312
H      -3.50410110     -0.19610740      1.19943671
H      -3.38022055     -1.14528431     -0.28266401
H      -2.21620102      1.67050048      0.08803952
H      -2.03351718      0.68950367     -1.36653004
H      -0.85294588     -0.04052647      1.38699305
H       1.13291697     -0.96498488      1.30937555
H       1.22255212     -2.06562585     -0.07396327
H       2.55508020     -0.42597770     -1.34621352
H       3.34109953     -0.94239233      0.13622839
H       2.62052065      1.19589721      1.26425786
H       1.84884122      1.71616716     -0.23494510
H       3.59914222      1.52132249     -0.16593971
