9
b3lypvtz=-235554.90987895
C       1.63014080      0.06254345     -0.10911866
O       1.92675650      0.69254460      0.86933066
N       0.46834890     -0.71283566     -0.24291654
C      -0.69564194     -0.27796114     -0.00768800
C      -1.05018068      1.10223229      0.25694593
N      -1.31922975      2.20524277      0.43782676
O      -1.77457924     -1.06733030     -0.02161981
H       2.28762227     -0.03188861     -0.98616186
H      -1.47323687     -1.97254739     -0.19659850
