19
b3lypvtz=-195132.77669012
O       3.34203091     -0.04975347      0.32641278
C       2.05092344      0.53171794      0.49419628
C       1.00359141     -0.05812568     -0.44413175
C      -0.37225867      0.58556529     -0.29598464
C      -1.18409440      0.14064558      0.95902447
C      -2.03561096     -0.79092574      0.05882439
C      -1.47749293     -0.05348363     -1.18583033
H       3.28402565     -0.98532821      0.54288257
H       2.18349790      1.59417908      0.28226122
H       1.72189446      0.44869095      1.53713006
H       0.92705963     -1.13773556     -0.26335446
H       1.35624876      0.06004323     -1.47283024
H      -0.27319661      1.66739730     -0.40930272
H      -1.76959654      0.95645348      1.38301481
H      -0.62292027     -0.33015657      1.76703758
H      -1.71074519     -1.83006625      0.10799269
H      -3.11474333     -0.76626607      0.20489262
H      -2.17446213      0.68842078     -1.57580446
H      -1.13405112     -0.67117244     -2.01653086
