12
b3lypvtz=-254538.33497955
C      -1.94425134     -0.01561490      0.12068585
C      -0.64905582      0.19546178     -0.12319079
O      -0.14389375      1.39984431     -0.57646160
C       0.40274698     -0.79081111      0.04810022
F      -0.03887691     -1.99777846      0.49386849
C       1.71914162     -0.66557042     -0.17181105
O       2.37683050      0.42707238     -0.61040608
H      -2.28192480     -0.97551229      0.47325424
H      -2.67859562      0.76446435     -0.02840496
H      -0.86286832      2.03125575     -0.67985393
H       2.36753731     -1.51166759      0.00956784
H       1.73321015      1.13895621     -0.74934823
