15
b3lypvtz=-193599.6532556
C       2.67467310     -0.37206930      0.00681303
C       1.71698920      0.36481736     -0.56067585
C       0.30805182      0.21856668     -0.28052691
C      -0.80095765      0.82897762     -0.73364387
C      -1.74026096     -0.07153729      0.04566856
C      -0.45517460     -0.73072187      0.63332096
O      -2.56101803      0.50740299      1.04952047
H       2.43995949     -1.14118721      0.73209124
H       3.71877721     -0.22841457     -0.23482212
H       1.98640737      1.13032187     -1.28230020
H      -0.97098494      1.64144279     -1.42906391
H      -2.32580830     -0.75358551     -0.58153526
H      -0.33461545     -1.79983939      0.44793022
H      -0.34549257     -0.53049350      1.69898244
H      -3.31054568      0.93631934      0.62539383
