17
b3lypvtz=-215280.36684834
N      -3.12797060     -0.12258587     -0.05197418
C      -1.72799061     -0.56191594     -0.00888503
C      -0.80786007      0.65418856     -0.02428666
C       0.67260949      0.39091149     -0.02188905
N       1.46754582      1.54264964     -0.10898742
C       1.21794209     -0.82879153      0.00166011
O       2.60057044     -0.96682213      0.09752559
H      -3.74475678     -0.92248066     -0.12944112
H      -3.37509282      0.34430034      0.81388872
H      -1.49446004     -1.19047290      0.86045312
H      -1.54456656     -1.16648370     -0.89943464
H      -1.04707687      1.28128278      0.84643572
H      -1.05379563      1.26242510     -0.89926665
H       2.43869399      1.36758578      0.10375407
H       1.11169199      2.33098942      0.41105278
H       0.63649488     -1.73834287      0.00934871
H       2.89388226     -1.65352451     -0.50750910
