15
b3lypvtz=-191228.86935084
C      -0.66358017     -0.70541178      0.41398384
C      -2.04771611      0.00225764      0.32284869
N      -1.84848004      1.29341287     -0.35594152
C      -0.60531859      1.41136567     -0.63158380
C       0.25249046      0.31195293     -0.22980717
C       1.58091921      0.24664484     -0.41236301
N       2.38810711     -0.82491730     -0.08461981
H      -0.38328910     -0.92038177      1.44949039
H      -0.65773572     -1.65783126     -0.12278939
H      -2.77757823     -0.58399831     -0.23940434
H      -2.48610095      0.18625528      1.30635042
H      -0.23283045      2.29870466     -1.13756125
H       2.09729529      1.06264571     -0.90432348
H       3.36610147     -0.63179928      0.04946321
H       2.01771584     -1.48889991      0.57625721
