11
b3lypvtz=-241305.52121816
N      -2.67815624      0.56423526      0.34572209
C      -1.67094417     -0.18739218      0.18254453
C      -0.27517633      0.25572344      0.04766247
F      -0.11838060      1.57623792      0.11050920
C       0.76598352     -0.57161085     -0.12402150
C       2.18049668     -0.18636361     -0.26472577
O       2.60801083      0.94375350     -0.24488495
H      -2.39867731      1.54734218      0.37377128
H      -1.81759006     -1.26573278      0.13329063
H       0.53906596     -1.62928044     -0.16254989
H       2.86526772     -1.04671244     -0.39721807
