20
b3lypvtz=-182661.05405918
C       1.87629710     -1.33772426     -0.22204736
C       1.06293571     -0.43561587      0.71106036
C       0.00035432      0.39454131      0.00800648
C      -1.12258707     -0.35624140     -0.68889241
C      -2.02304205     -1.15465918      0.25575313
C      -0.28840382      1.74689914      0.54534511
N       0.44806386      1.59550204     -0.72513985
H       2.66343797     -1.85339772      0.32993667
H       2.35015050     -0.76063574     -1.01848758
H       1.25397028     -2.09940272     -0.69312170
H       0.59349798     -1.04525918      1.48816886
H       1.74046094      0.24567484      1.23430328
H      -1.71622649      0.37792083     -1.23595782
H      -0.69741128     -1.02064633     -1.44623507
H      -2.45580220     -0.51226169      1.02561053
H      -1.47988144     -1.95542235      0.76067043
H      -2.84572525     -1.61554537     -0.29277481
H      -1.28138952      2.16943580      0.44567825
H       0.25504968      2.07849804      1.42276147
H       1.43883277      1.75292981     -0.56665698
