14
b3lypvtz=-203712.48141006
C       2.32024851     -0.36063292     -0.42993285
C       1.09516914     -0.09936083      0.45299875
C       0.43731978      1.23026772      0.15545540
N      -0.80812881      1.23731534     -0.11547951
C      -1.27068157     -0.12934842     -0.05169706
O      -2.41063754     -0.45303556     -0.21998250
C      -0.08693857     -1.05404950      0.25765930
H       2.77496670     -1.31999416     -0.18202515
H       3.07791676      0.41311833     -0.29366745
H       2.04413205     -0.38020344     -1.48572635
H       1.42218567     -0.08674448      1.49813614
H       1.00408175      2.15914380      0.16329859
H       0.05558313     -1.73453981     -0.58300009
H      -0.31908600     -1.66306907      1.13003578
