13
b3lypvtz=-242073.34008476
N       2.57970765      0.79378979     -0.68217512
C       2.00520309     -0.04207065      0.05326910
F       2.70421618     -0.84982883      0.90808859
C       0.56917809     -0.30631016      0.14185862
C      -0.32110830      0.35468832     -0.59401364
C      -1.79281703      0.13519365     -0.55261343
O      -2.12428488     -0.87886728      0.37928492
H       3.58864458      0.78222381     -0.55537905
H       0.25722918     -1.07031468      0.83850015
H       0.02457690      1.11631949     -1.28442658
H      -2.27910581      1.08794124     -0.29657400
H      -2.13388534     -0.12535362     -1.56532127
H      -3.07755431     -0.99741108      0.38290171
