10
b3lypvtz=-202130.81733787
N       4.15427556      0.82985933     -0.61046714
C       3.05329874      0.50383844     -0.47303822
C       1.75278954      0.12085341     -0.30725870
C       0.60357210     -0.21343972     -0.16436344
C      -0.75694220     -0.62586540      0.03335467
C      -1.88239239      0.24141344     -0.36583717
O      -1.53321995     -0.89798199     -1.14160196
H      -0.91008586     -1.32669483      0.84809819
H      -2.81238268      0.16688657      0.18777241
H      -1.66881287      1.20113075     -0.82265864
