13
b3lypvtz=-216164.20239614
C       0.45468913     -1.15211809     -0.53057254
C       1.58647130     -0.15279900     -0.54421466
C       1.09226612      1.07418926     -0.31779749
C      -0.35517788      0.99322883     -0.14166629
C      -0.74138197     -0.28972405     -0.26202661
O      -2.04339421     -0.71566000     -0.15075757
O      -1.11444746      2.09993132      0.10315233
H       0.37765870     -1.68294015     -1.48694006
H       0.60125462     -1.91237382      0.24589165
H       2.61721447     -0.41962618     -0.71265288
H       1.64583225      2.00021905     -0.26658429
H      -2.08618112     -1.66755830     -0.27175385
H      -2.03480396      1.82523112      0.18580498
