12
b3lypvtz=-202896.25006204
C      -1.90490244      0.81003997      0.80478529
N      -0.92048025      0.03103115      0.68874564
C      -0.59186282     -0.45190332     -0.63501954
C       0.87420664     -0.22227280     -0.99788405
O       1.20042887      0.07574256     -2.12487699
C       1.85640637     -0.42115941      0.04990339
C       2.68802698     -0.59736623      0.89768852
H      -2.52245139      1.13760868     -0.04029347
H      -2.16986411      1.18622011      1.79001861
H      -0.73493412     -1.53937185     -0.64173043
H      -1.19881655     -0.02012406     -1.43930331
H       3.42424280     -0.75010795      1.64796633
