17
b3lypvtz=-215278.19038821
C      -2.15880573      0.39213006      0.32980990
C      -1.04466511     -0.21099568     -0.09085476
N      -0.93929594     -1.60097245     -0.27100665
C       0.17691687      0.58542351     -0.55405294
N       0.24768003      1.85882560      0.16003589
C       1.47817204     -0.22429842     -0.51792039
O       1.69881710     -0.69613152      0.81559842
H      -3.02223629     -0.18507073      0.63664157
H      -2.22782257      1.46714907      0.35318665
H      -1.76660363     -2.09015986      0.04039853
H      -0.11955601     -1.98817028      0.17914283
H       0.01644478      0.81813953     -1.61379005
H       1.00455398      2.42567394     -0.20378508
H       0.43775630      1.68829572      1.14118079
H       2.29629217      0.43090427     -0.83570704
H       1.42113515     -1.06155527     -1.22122203
H       2.58509186     -1.06249549      0.87543738
