16
b3lypvtz=-204456.7113484
C       3.06885876     -0.34146720      0.21924572
N       1.92613745      0.20454474      0.10149398
C       0.78780357     -0.54455813     -0.14641671
C      -0.38610030      0.11495355     -0.25732455
O      -0.44024770      1.45806735     -0.12976833
C      -1.70943648     -0.52300718     -0.51975202
C      -2.72283078     -0.30338502      0.61287048
H       3.93815878      0.27835818      0.41289460
H       3.22401474     -1.42143482      0.13405700
H       0.83613490     -1.62497790     -0.24996041
H       0.47541033      1.74365950      0.04149045
H      -1.55485335     -1.58916658     -0.68913145
H      -2.11134001     -0.10307432     -1.44716856
H      -2.88336955      0.75923531      0.78940896
H      -2.37149309     -0.75238067      1.54294381
H      -3.68157026     -0.75639481      0.35834403
