15
b3lypvtz=-214520.72015685
C       2.19355964     -0.98699467     -0.04658103
N       1.62827414      0.34812560      0.04445952
C       0.31016406      0.68147164      0.15224924
O      -0.06564419      1.83847761      0.08017859
C      -0.64734765     -0.46401516      0.37249747
C      -2.09639685     -0.18633253      0.43322211
N      -1.52343854     -0.76879036     -0.78585949
H       3.23689859     -0.89938540     -0.34282030
H       2.16487724     -1.51735069      0.90871065
H       1.68515332     -1.59280241     -0.79828163
H       2.23349757      1.13629391     -0.12106345
H      -0.27270838     -1.30409040      0.94481076
H      -2.41540510      0.84130683      0.33149965
H      -2.70121762     -0.81379230      1.07670898
H      -1.70201923     -1.76756767     -0.81781408
