14
b3lypvtz=-203678.30184753
C       2.43418948     -0.83408422     -0.39204142
C       1.99193005      0.14719156      0.38337686
C       0.56525117      0.50606024      0.57078394
C      -0.22491763      1.26377065     -0.47263983
N      -0.44077164     -0.14392159     -0.24928502
C      -1.62682074     -0.66794405      0.23675618
O      -2.72854961     -0.29829179     -0.08460459
H       3.49179122     -1.03291502     -0.49686386
H       1.74786788     -1.46376271     -0.94307289
H       2.69377065      0.76367844      0.93627657
H       0.27584086      0.72508623      1.59551466
H       0.26710531      1.52211838     -1.40138468
H      -1.00473808      1.93966868     -0.14241969
H      -1.45222692     -1.51825380      0.91751978
