15
b3lypvtz=-193635.59939535
C       2.39688235     -0.53776604     -0.27313757
C       1.17233653     -0.17579187      0.08443782
C       0.68905668      1.24747570      0.28931505
C      -0.76437609      1.23011366     -0.21227266
C      -1.23285200     -0.21467352     -0.03710723
O      -2.36820501     -0.60222452     -0.12776303
C      -0.01343508     -1.08718024      0.27202270
H       3.18060128      0.19466047     -0.42151334
H       2.66221775     -1.57606689     -0.42679318
H       0.70533673      1.48843244      1.35749359
H       1.31942302      1.97687535     -0.21665945
H      -0.81466015      1.45337640     -1.28239647
H      -1.43925763      1.91979228      0.29234300
H      -0.00414097     -1.98952502     -0.33836805
H      -0.10753541     -1.40937120      1.31651182
