18
b3lypvtz=-181907.51067543
C       2.15654121      0.32178243     -0.38741524
C       0.72442184      0.11978868      0.02532136
C      -0.20632294      1.31987812      0.11510802
C      -1.62522812      0.71644649      0.20092945
C      -1.53704076     -0.64549976     -0.52660807
C      -0.09181343     -1.05852774     -0.35196043
N       0.39040361     -0.90515696      1.04281509
H       2.67208004     -0.63250772     -0.51395838
H       2.70248292      0.90025771      0.36257633
H       2.21967628      0.86538715     -1.33283040
H      -0.08944452      1.92074937     -0.79183238
H       0.02301298      1.96281424      0.96751479
H      -2.38298559      1.37015108     -0.23061642
H      -1.88636449      0.55233783      1.24424459
H      -2.23986997     -1.37576839     -0.12124914
H      -1.75072344     -0.53804318     -1.59396179
H       0.32186746     -1.85835573     -0.95428959
H       1.19672593     -1.50641462      1.18294221
