15
b3lypvtz=-193604.48950877
C       2.27854631     -1.15885967      0.00010208
C       1.42511631     -0.31337928      0.00009273
C       0.39147956      0.71690120     -0.00005005
O       0.69857205      1.88939985     -0.00016862
C      -1.05360823      0.24005891     -0.00005329
C      -1.36890816     -0.56255043      1.27045497
C      -1.36879817     -0.56287909     -1.27038053
H       3.04686263     -1.89257945      0.00015201
H      -1.64435688      1.15763627     -0.00019549
H      -2.42384711     -0.84033234      1.27943779
H      -0.77913522     -1.47922745      1.31597201
H      -1.16593528      0.01899725      2.17060975
H      -1.16574089      0.01843289     -2.17066878
H      -2.42373845     -0.84065536     -1.27938501
H      -0.77902648     -1.47957128     -1.31560555
