16
b3lypvtz=-202015.60356132
C      -1.35247698     -1.05645586      0.15815590
C      -0.32947331     -0.02055710      0.71220609
C      -1.39539286      1.04507070      0.31632081
N      -2.04796806      0.03964179     -0.55211416
C       0.94531183      0.06403729     -0.05156244
N       2.06937450      0.05058295      0.54195569
N       3.20940981      0.21032931     -0.21265096
H      -1.93211801     -1.51969422      0.96443454
H      -0.96201953     -1.84312335     -0.49103238
H      -0.10373291     -0.09496682      1.77266567
H      -1.99093147      1.35791331      1.18113799
H      -1.03864829      1.93468826     -0.20653485
H      -3.05920531      0.01652251     -0.52021320
H       0.87316688      0.14679902     -1.14334404
H       3.98960992     -0.23117466      0.24930387
H       3.12509374     -0.09961312     -1.17810888
