19
b3lypvtz=-192717.60656789
C       2.77167263      0.40557601     -0.12307416
N       1.35695894      0.37370537      0.19627757
C       0.74931687     -0.94061871      0.06386116
C      -0.77545938     -0.90673340      0.10403441
C      -1.41314974      0.14850474      1.04807120
N      -1.62371055      1.03008586     -0.12937237
C      -1.45599208     -0.12107539     -1.04716696
H       3.32709675     -0.20722047      0.59185561
H       3.14515115      1.42659088     -0.03945511
H       3.01494674      0.03191592     -1.13176793
H       0.83934205      1.06481838     -0.33255818
H       1.11728082     -1.56909119      0.88328535
H       1.04992207     -1.45043137     -0.87042547
H      -1.14339934     -1.92358912      0.23211234
H      -2.33948052     -0.21474017      1.50599113
H      -0.76787440      0.57605471      1.81472614
H      -2.51775957      1.50264441     -0.17273040
H      -2.39474059     -0.58608114     -1.36823799
H      -0.85190086      0.08893667     -1.93443734
