18
b3lypvtz=-205197.57358772
C      -2.56478779     -0.97769282      0.24172806
C      -1.71757621      0.00538068     -0.56998786
C      -0.76407926      0.78843602      0.29802210
O       0.28592038      1.52052225     -0.34683939
C       0.64700840      0.44731676      0.52969129
C       1.34705978     -0.75179672     -0.05656441
N       2.79145540     -0.51228139     -0.13143605
H      -3.27870271     -1.49832573     -0.39728329
H      -3.13290333     -0.46346034      1.01981824
H      -1.94241189     -1.72999741      0.72978448
H      -2.37040687      0.71833945     -1.08208916
H      -1.16662748     -0.51932846     -1.35066023
H      -1.25777979      1.35396211      1.08844373
H       1.08322026      0.78979771      1.46850873
H       1.07450344     -1.63483873      0.54317804
H       0.98297881     -0.92113548     -1.06898121
H       3.25112582     -1.27107681     -0.61945509
H       3.19549203     -0.47835508      0.79759400
