14
b3lypvtz=-201308.66423315
N      -2.32099371     -0.15869665     -0.14665752
C      -1.06781143     -0.04114507      0.02617506
C      -0.19292842     -1.22664520      0.34351808
C       1.19776246     -1.08078450     -0.28272622
N       1.82803337      0.21081812     -0.01157465
C       1.04262679      1.19843141      0.09072922
N      -0.34694099      1.15253136      0.00229613
H      -2.77252813      0.73939886     -0.32410215
H      -0.09186757     -1.27710921      1.43262351
H      -0.69907186     -2.13309239      0.01908262
H       1.13629672     -1.20210782     -1.37069122
H       1.85707018     -1.86953375      0.07922404
H       1.44108407      2.19752207      0.24851267
H      -0.85677649      2.02092076     -0.03118856
