15
b3lypvtz=-214538.33459878
C      -2.78916172     -0.53982111      0.33002536
N      -1.68390852     -0.49962561     -0.27529394
C      -0.95360127      0.75340973     -0.30804398
C       0.54553029      0.59613107     -0.03031588
O       1.22803775      1.57636732      0.21546195
N       1.00941677     -0.67120476     -0.11344414
C       2.40030637     -1.01990451      0.09086524
H      -3.23180129      0.32711032      0.83376962
H      -3.34588183     -1.47327433      0.36405007
H      -1.34068349      1.50684988      0.38605015
H      -1.02851979      1.16634053     -1.31855786
H       0.32636729     -1.38436895     -0.31667453
H       2.83554898     -1.45455973     -0.81143744
H       2.94084238     -0.11033898      0.33956748
H       2.50946808     -1.73370086      0.90966090
