11
b3lypvtz=-241315.68042084
C      -0.18031078     -0.03598530     -0.49572439
C      -1.51622572      0.21716334      0.17160705
F      -1.50479588      1.47875263      0.75695840
C       0.94263551     -0.29112653      0.48591960
O       0.79932330     -0.57172868      1.64609796
C       2.30074362     -0.21076000     -0.09447294
N       3.34850051     -0.15037566     -0.56757801
H      -0.24342617     -0.91761568     -1.14466464
H       0.08863519      0.79878361     -1.14696152
H      -1.71521109     -0.51447923      0.95434754
H      -2.31986850      0.19737153     -0.56552904
