12
b3lypvtz=-202931.07839407
C      -0.93677312     -1.42223181     -0.85396118
C      -0.66207233     -0.17025288     -0.48569328
O      -1.43893540      0.85891110     -0.94472624
C       0.49574227      0.19927697      0.35342568
C       0.92641574      1.45805010      0.52459316
C       1.18887554     -0.86704671      1.01769973
N       1.74879092     -1.72196071      1.54912087
H      -0.29535288     -2.23864841     -0.56329789
H      -1.79704169     -1.62942271     -1.47247301
H      -1.46464458      1.56725628     -0.29200982
H       1.77055940      1.67892879      1.16005449
H       0.46443615      2.28703999      0.00726750
