17
b3lypvtz=-240973.3023036
C      -2.75382152     -0.73326308      0.45851744
O      -2.06131309     -0.07227045     -0.57860129
C      -1.22244518      0.98065641     -0.14550949
C       0.11620762      0.52918563      0.41338233
O       0.89659310     -0.01266516     -0.63708189
C       2.04478564     -0.69951294     -0.22584144
O       3.05940486      0.13010509      0.29571131
H      -3.40049320     -1.47275682     -0.01040090
H      -3.37306540     -0.03396653      1.03542248
H      -2.08142200     -1.25261163      1.15143140
H      -1.03803059      1.60257573     -1.02228262
H      -1.73333200      1.59379759      0.61000700
H      -0.02392375     -0.21980336      1.20572316
H       0.61545541      1.39904685      0.85918554
H       2.45082300     -1.15756153     -1.12463367
H       1.77393229     -1.47527354      0.50487147
H       2.90501081      0.27520075      1.23331218
