12
b3lypvtz=-226240.12363737
O       3.08346213      0.34298104     -0.67462571
C       2.30934993     -0.03130514      0.16494793
C       0.82655602     -0.02554189     -0.00255215
N       0.04622691     -0.43163227      0.91441116
C      -1.31903737     -0.27558244      0.39051191
C      -1.12938895      0.31128992     -1.02906768
O       0.31446438      0.42676413     -1.16618831
H       2.62212641     -0.41885385      1.14941392
H      -1.88764599      0.38124296      1.05035475
H      -1.81906400     -1.24515091      0.38718265
H      -1.48977454     -0.33874364     -1.82447105
H      -1.55737492      1.30443209     -1.15391742
