15
b3lypvtz=-214529.74448354
C       2.11213459     -1.09800009     -0.34736205
C       1.47804733      0.04669930     -0.06422792
O       2.18669758      1.17096804      0.25096292
N       0.10510455      0.27820093     -0.09777480
C      -0.68655022     -0.61984037      0.35787859
N      -2.02960886     -0.53334104      0.24788337
C      -2.69514367      0.61115847     -0.34622258
H       3.18900260     -1.14962731     -0.30918376
H       1.56120612     -1.96772981     -0.66655207
H       1.53943750      1.87402490      0.37969031
H      -0.32769694     -1.52421767      0.85514843
H      -2.57839675     -1.18602800      0.77742808
H      -2.25132828      0.83058341     -1.31596749
H      -3.74954996      0.37764442     -0.47879522
H      -2.60149561      1.50604981      0.27451618
