15
b3lypvtz=-214512.0582357
O       2.61560325      1.26002899      0.11141504
N       2.09825926      0.15961892     -0.65624467
C       0.85136342      0.03157561     -0.40566173
C      -0.02883758     -0.99083774     -1.08561581
C      -1.33009732     -0.93275652     -0.26235498
C      -1.33434597      0.49457333      0.30932272
N       0.08925937      0.75893776      0.47186718
H       3.53798027      1.27055465     -0.15605616
H      -0.20118509     -0.68282150     -2.11938342
H       0.43196747     -1.97568018     -1.10898491
H      -1.28654310     -1.65142818      0.55672340
H      -2.21892636     -1.14682328     -0.85286638
H      -1.80715122      1.19694707     -0.38872888
H      -1.85914173      0.56414660      1.26265309
H       0.44189534      1.64386448      0.79561552
