14
b3lypvtz=-203662.41229736
C      -1.00990652     -0.96371434     -0.13409365
C       0.41117853     -0.70347945     -0.64850238
C       0.25472736      0.81212273     -0.33602810
C       1.23001450     -0.09178013      0.41592908
O       2.57813078      0.06654993      0.08241198
C      -1.13514309      0.55361220      0.11641946
N      -2.05939712      1.35402967      0.42502595
H      -1.10677378     -1.62534301      0.72957224
H      -1.69857949     -1.28790248     -0.91468196
H       0.86802971     -1.14795425     -1.51916943
H       0.62502438      1.67791083     -0.86519682
H       1.04278357     -0.33679655      1.45976277
H       2.92070223      0.83982200      0.54239813
H      -2.92079108      0.85292286      0.64615270
