13
b3lypvtz=-216157.69942761
C       1.69699580     -0.11327185     -0.17284966
C       0.28267937     -0.04358375      0.28230806
C      -0.56397771      1.12741089      0.59249717
C      -1.03835386      0.08741145     -0.43836054
C      -1.41389631     -1.15301892      0.31121268
O      -2.30287090     -1.93844495      0.33838719
O      -0.23297555     -1.18823977      1.04812654
H       1.88143933     -1.03605108     -0.72341988
H       2.37399491     -0.08109194      0.68288204
H       1.92709195      0.73393451     -0.81913905
H      -1.06068754      1.20032850      1.55113968
H      -0.26333239      2.06989605      0.15176163
H      -1.28590709      0.33472086     -1.45784587
