13
b3lypvtz=-213765.60232045
C      -2.76326983      0.00927742     -0.05121059
C      -1.31824420      0.02179046      0.30972665
N      -0.45519711     -0.63201584     -0.35407037
C       0.89968227     -0.55679777     -0.05398565
N       1.67905826     -1.54182492      0.15567638
C       1.56748036      0.80131513     -0.04524707
O       0.97708862      1.84879318     -0.08292252
H      -3.10433778      1.03102081     -0.23824054
H      -2.93777093     -0.60166233     -0.93384778
H      -3.35946797     -0.37046748      0.78291820
H      -1.04211819      0.61316138      1.18697325
H       1.16215018     -2.42252069      0.13445942
H       2.66693332      0.72882665      0.02223961
