15
b3lypvtz=-214518.01840853
C      -1.53567709     -0.67307423      0.17925392
C      -0.25619819      0.13172225      0.08925184
C      -0.27225290      1.49765986     -0.50369541
N      -0.19766732      1.31286999      0.95323067
C       0.99433693     -0.67278184     -0.12605579
N       2.08767788     -0.65365224      0.51166982
O       0.85106086     -1.52168863     -1.17185322
H      -2.37678295     -0.00149849      0.34330652
H      -1.49187770     -1.37233083      1.01640108
H      -1.70315941     -1.24155869     -0.73430995
H       0.61323270      1.83699784     -1.02708981
H      -1.20814945      1.89899364     -0.87317832
H       0.74768236      1.49331289      1.27599153
H       2.06775953     -0.01662045      1.30140138
H       1.68001476     -2.01835107     -1.23432428
