15
b3lypvtz=-191187.44136991
C      -1.80941171     -0.71979193     -0.23830309
N      -0.47912213     -0.17196618     -0.33870666
C       0.74163819     -0.80951125      0.21256938
C       1.90950101     -0.27067372     -0.52887742
C       1.27889294      0.56796057      0.57679726
C      -0.07799720      1.08097180      0.17509443
N      -0.64046590      2.19491123      0.36310906
H      -2.51728254     -0.03111533     -0.69987831
H      -2.12968731     -0.89609684      0.79810351
H      -1.86348648     -1.66138548     -0.78543621
H       0.70134842     -1.71105146      0.80536020
H       2.88045716     -0.67243531     -0.26660917
H       1.78522495      0.01496673     -1.56560212
H       1.83143330      0.89680807      1.44103506
H      -1.61114269      2.18840911      0.05144407
