15
b3lypvtz=-191243.68008045
C       1.64203151     -1.34130353      0.00001552
C       0.29989177     -0.69615900      0.00000781
C      -0.96674849     -1.22113807     -0.00003454
N      -1.91436084     -0.22723543      0.00008818
C      -1.23392072      0.89078880     -0.00001554
N       0.11540247      0.67494181      0.00000722
C       1.14813780      1.69025807      0.00000551
H       2.23197619     -1.07328860      0.88115761
H       2.23199066     -1.07324761     -0.88110355
H       1.52499923     -2.42380076     -0.00001192
H      -1.24161244     -2.26347561     -0.00008437
H      -1.64822187      1.88677374     -0.00004572
H       1.77913788      1.60983749      0.88640455
H       0.67669832      2.67060710     -0.00003793
H       1.77917753      1.60978060     -0.88635883
