11
b3lypvtz=-236307.23986646
C      -0.07986207      1.41772038      0.11053335
C       0.63227293      0.20500448      0.03879610
C      -0.33819279     -0.76505319     -0.07316376
N      -1.52683972     -0.12174479     -0.06402530
N      -1.39352735      1.21900252      0.04787785
O      -0.27372003     -2.11246620     -0.17838350
O       1.97619869     -0.08483148      0.06321469
H       0.30961527      2.41938165      0.20460848
H      -2.43922392     -0.53640647     -0.12958177
H       0.65510223     -2.37075201     -0.16577813
H       2.47817676      0.73014511      0.14590199
