14
b3lypvtz=-226995.92894177
C       2.13911626     -0.61975258     -0.20796968
O       0.73584344     -0.88025023     -0.25346638
C      -0.10916370      0.19527518      0.08878226
C       0.10672496      1.45844468     -0.73991550
O       0.03392603      0.56981735      1.44099173
C      -1.48018205     -0.34036956     -0.14226220
N      -2.55566706     -0.71719153     -0.29186746
H       2.62117109     -1.59107730     -0.28490099
H       2.42763187     -0.14651939      0.73189225
H       2.46034984      0.00214410     -1.04650549
H       1.07437395      1.89244545     -0.49591346
H      -0.66599903      2.18671233     -0.50364864
H       0.06540764      1.22101697     -1.80120517
H      -0.16688225     -0.19677947      1.99231772
