15
b3lypvtz=-216920.2480555
O       3.57359166      0.32298604     -1.20020222
C       2.40093421     -0.23257218     -0.80547969
C       1.27543962      0.41678008     -0.48330263
C       0.06564343     -0.25971318     -0.07076876
C      -1.08638402      0.33858529      0.25759345
C      -2.31763185     -0.39151988      0.68568269
O      -2.75895360     -0.00743805      1.99274125
H       3.48791095      1.28359912     -1.21984917
H       2.47456492     -1.31244109     -0.77791227
H       1.25581336      1.50267335     -0.53064518
H       0.11117962     -1.34610118     -0.03618524
H      -1.15816073      1.42257673      0.23861452
H      -2.15221505     -1.47423461      0.62872976
H      -3.15869848     -0.15341545      0.03037732
H      -2.01303404     -0.10986498      2.59280616
