15
b3lypvtz=-240217.91599355
C      -2.21348308     -1.14016081     -0.29918042
O      -1.05613577     -0.71634237      0.43362828
C      -0.53690598      0.49042301      0.14125425
O      -1.49985195      1.40502678     -0.16756775
C       0.77201122      0.75346076      0.21301870
C       1.82078846     -0.26571349      0.48405162
O       2.69443483     -0.34696221     -0.65650365
H      -2.39910404     -2.16195403      0.02056149
H      -2.02110252     -1.12105994     -1.37363339
H      -3.07695537     -0.51777489     -0.07158437
H      -1.07052423      2.21489549     -0.46201857
H       1.09761813      1.77537956      0.06124716
H       1.35401536     -1.23283123      0.68636523
H       2.40443270      0.01827950      1.36910860
H       3.44739624     -0.89497512     -0.41443718
