14
b3lypvtz=-226999.47898876
C       2.22700720     -1.10270404      0.20698075
O       0.95268576     -0.74933379     -0.34518775
C       0.43979974      0.47373599     -0.09363759
N       1.35666578      1.48635194      0.08203130
C      -0.90427855      0.64743149     -0.00806797
C      -1.85878827     -0.43515900      0.01965321
O      -3.06685232     -0.28207355      0.08017719
H       2.30684426     -2.17900300      0.08181102
H       3.04911065     -0.62484366     -0.32961772
H       2.28150019     -0.84499411      1.26466116
H       2.16851841      1.47112746     -0.51674087
H       0.95752142      2.40503587      0.18691504
H      -1.29709948      1.65382821      0.05035335
H      -1.42604478     -1.45264479     -0.01331512
