15
b3lypvtz=-191197.72282398
C       2.77738673     -0.40955586      0.13126966
C       1.60801200     -0.67776211     -0.00108416
C       0.26996367     -1.09161352     -0.16653720
C      -0.86377307     -0.35409932      0.00502446
N      -2.11270967     -0.97289752      0.11816370
N      -0.97641374      1.00966823      0.09995631
C       0.09983793      1.95830723     -0.11761091
H       3.80008385     -0.16370320      0.26593915
H       0.12713247     -2.13694962     -0.41490662
H      -2.07855059     -1.97790047      0.05527699
H      -2.82349645     -0.57906337     -0.48300939
H      -1.72638189      1.31594549      0.69846827
H       0.64046864      1.69737460     -1.02424304
H       0.81905755      1.99887881      0.70322973
H      -0.33964343      2.94667861     -0.25211095
