16
b3lypvtz=-204462.05265256
O       3.67199147     -0.06850470      0.42277303
C       2.51402197      0.26869466      0.54245327
N       1.48138422     -0.20652859     -0.20282766
C       0.10271423      0.18463161     -0.07198812
C      -0.98797942     -0.90081258      0.12523301
C      -1.92671403     -0.04780373     -0.76620236
C      -0.67565118      0.68271873     -1.31815113
H       2.18199045      1.01366008      1.28876109
H       1.72872042     -0.89274847     -0.90197674
H       0.04953933      0.92407315      0.72788227
H      -0.70268272     -1.82999990     -0.37090632
H      -1.29728621     -1.12881054      1.14442590
H      -2.55640873      0.61596286     -0.17429275
H      -2.55389042     -0.57582917     -1.48112486
H      -0.72815256      1.75755151     -1.48659004
H      -0.30159682      0.20354509     -2.22446859
