14
b3lypvtz=-227003.74141589
C      -0.96394779     -1.18842777     -0.29697612
C      -0.52111193      0.16160880      0.29317289
C      -1.59203343      0.72313057     -0.64199509
O      -2.02245343      1.78721070     -0.94676348
O      -1.97092474     -0.50710917     -1.12233862
C       0.90063099      0.64841875      0.05649784
N       1.83045767     -0.02033983      0.96920653
H      -0.23825671     -1.69517827     -0.93216116
H      -1.43889260     -1.89002669      0.38461217
H      -0.78249196      0.28623715      1.34382224
H       1.15253356      0.52816248     -1.00679064
H       0.92860146      1.71875077      0.26648544
H       2.73679395      0.43066708      0.94286847
H       1.98109498     -0.98310456      0.69035955
