16
b3lypvtz=-204458.12115511
C       2.77701470      0.48401261     -0.14675061
C       1.61982092     -0.11937963      0.66431354
C       0.76862064     -1.04410586     -0.15174204
C      -0.51587866     -0.89942210     -0.48302372
C      -1.39848539      0.23563961     -0.11278941
N      -1.19008477      1.47465551     -0.26034128
O      -2.59990523     -0.13578602      0.41915498
H       3.40699703      1.10764409      0.48836878
H       3.40612091     -0.29527211     -0.58094738
H       2.40532100      1.10278507     -0.96482689
H       1.01492395      0.67521119      1.10003512
H       2.04214354     -0.69222879      1.49643995
H       1.27015643     -1.94035254     -0.50690174
H      -0.99735326     -1.68681419     -1.05667398
H      -0.29454008      1.62815925     -0.71218459
H      -2.59840573     -1.08456609      0.58238026
