16
b3lypvtz=-204434.37334145
C      -2.93635142      0.89911088     -0.10360809
C      -2.56135368     -0.34059228      0.17649038
C      -1.15719506     -0.85338987      0.15472860
O      -0.24565576      0.17453955     -0.19428002
C       1.05340729     -0.25102624     -0.35783895
C       2.06641857      0.39392136      0.21814789
N       3.42130082      0.04709691      0.13129215
H      -2.21459651      1.65500825     -0.37952772
H      -3.97758873      1.18939195     -0.06349021
H      -3.30177222     -1.08518105      0.45301571
H      -1.08045134     -1.68362957     -0.56393943
H      -0.89550013     -1.26868698      1.13854212
H       1.19189786     -1.11321115     -1.00748845
H       1.85013955      1.23872639      0.86015837
H       4.03919907      0.84338389      0.07604378
H       3.63346069     -0.60765206     -0.60805512
