14
b3lypvtz=-224601.69832122
N      -2.76030301     -0.60992651     -0.04709395
C      -1.63145990      0.15717794      0.05876398
N      -0.46107252     -0.33862202     -0.06099094
C       0.67152827      0.47291282     -0.03051624
N       0.51897580      1.88737450      0.05461800
C       1.86490437     -0.14618152     -0.01890321
O       2.00543736     -1.50013994      0.02956518
H      -2.63196498     -1.60892335     -0.01147367
H      -3.60688430     -0.26114918      0.36691197
H      -1.81397853      1.21889405      0.22318524
H       0.21364419      2.29364466     -0.82457665
H       1.38034853      2.33843309      0.33040618
H       2.80601033      0.38421776     -0.02500420
H       1.10101640     -1.85225931      0.00326629
