17
b3lypvtz=-191965.05163706
C      -2.31714656      0.09870668     -0.68074688
C      -1.28191141      0.80243624      0.20960606
C      -0.08327210     -0.07241675      0.49372022
N      -0.02261488     -0.68405368      1.60646518
C       0.93681409     -0.13226230     -0.60493562
C       2.35387314      0.22892647     -0.29951681
N       1.99247771     -1.14513141     -0.64202569
H      -3.16409203      0.75771076     -0.87518158
H      -2.69152732     -0.80093723     -0.19189782
H      -1.89559977     -0.19213485     -1.64439766
H      -1.73474946      1.06661533      1.16414475
H      -0.95053097      1.72549254     -0.27486053
H       0.81163678     -1.27111495      1.68303477
H       0.55787161      0.12895404     -1.58560719
H       2.58409966      0.46707481      0.73218476
H       2.94690038      0.75029467     -1.04040327
H       1.95777114     -1.72816037      0.18977738
