15
b3lypvtz=-191227.056796
C      -2.17374812     -1.10493324     -0.38307522
C      -1.41829562     -0.03997742      0.42378800
N      -1.67209544      1.28031950     -0.14980751
C       0.05090143     -0.35384285      0.44821748
C       0.99906384      0.37321976     -0.14689514
C       2.37860376      0.02683311     -0.10023488
N       3.50289583     -0.23083873     -0.07451367
H      -3.25039144     -0.93541381     -0.31957793
H      -1.96951667     -2.10505980     -0.00111674
H      -1.87485405     -1.06308865     -1.43054302
H      -1.76601788     -0.11922586      1.46641798
H      -1.37622676      2.01455792      0.48296821
H      -2.66194730      1.41018002     -0.31673303
H       0.32986349     -1.24993769      0.99188961
H       0.73521794      1.26166976     -0.70632014
