16
b3lypvtz=-202028.87187264
C       2.74616415     -0.18159690      0.11017428
N       1.40890567      0.15505596     -0.33415872
N       0.44920464     -0.74267228     -0.02514717
C      -0.80164305     -0.44431209     -0.04060893
C      -1.79890004     -1.55003996      0.16782724
C      -1.35663520      0.90966814     -0.31452943
N      -1.08016426      2.00375496      0.27363514
H       3.45381891      0.49434620     -0.36941653
H       2.97471244     -1.20083369     -0.19663094
H       2.87427002     -0.11144927      1.19728349
H       1.16495382      1.13646680     -0.30564131
H      -1.27453963     -2.48926803      0.33079476
H      -2.45277818     -1.66058073     -0.70300123
H      -2.44542812     -1.35110391      1.02690736
H      -2.11123809      0.95663331     -1.10604613
H      -0.40763910      1.84988148      1.02931111
