15
b3lypvtz=-191214.98526448
C       1.89813367     -0.41352369     -0.20996514
C       0.40973685     -0.20912468     -0.24747607
C      -0.20915281      0.99775520     -0.91162312
C      -0.37337805      0.81090573      0.57962092
N      -1.51017672      0.05327533      1.03456021
C      -1.45854589     -1.16827044      0.39242513
N      -0.40082633     -1.41736131     -0.28151785
H       2.18144882     -1.04446570      0.63401387
H       2.42482803      0.53765248     -0.12297453
H       2.23147545     -0.90663545     -1.12493701
H      -1.06505348      0.84932291     -1.55763971
H       0.47024414      1.78201616     -1.21680145
H       0.06866623      1.50328297      1.28246546
H      -2.39176028      0.49486703      1.24000983
H      -2.27563960     -1.86969655      0.50983945
