16
b3lypvtz=-204429.93133993
C       3.14726144     -0.00003189     -0.25706648
N       1.90133130      0.00000945      0.48272613
C       0.81659852      0.00000001     -0.16278568
C      -0.51439640      0.00002015      0.50783745
C      -1.55333218      1.03438369      0.00844448
O      -2.49592236     -0.00001886     -0.34687663
C      -1.55331790     -1.03438735      0.00850449
H       3.01448999     -0.00009494     -1.34729535
H       3.73235346      0.87644651      0.02873421
H       3.73235099     -0.87647854      0.02883559
H       0.80013243     -0.00006369     -1.26512203
H      -0.37385833      0.00005279      1.58551672
H      -1.24269351      1.61748906     -0.86376352
H      -1.95017721      1.70879296      0.76964419
H      -1.24267080     -1.61753787     -0.86367051
H      -1.95015344     -1.70875848      0.76974296
