19
b3lypvtz=-192743.42755362
C       3.17290566     -0.54552847     -0.10182598
C       2.15628597      0.53424984      0.26059317
N       0.89237907      0.30351856     -0.42087795
C      -0.15422325      0.15879943      0.26904559
C      -1.51868514     -0.04826753     -0.34149363
C      -2.14896586     -1.35495694      0.13459323
N      -2.42873873      1.06846151     -0.04249651
H       2.84292450     -1.52375482      0.25144522
H       4.14145108     -0.32785151      0.35122779
H       3.29987970     -0.60248161     -1.18304965
H       2.02934541      0.58691159      1.35212798
H       2.53406393      1.50531409     -0.07251766
H      -0.13583612      0.21480897      1.37179476
H      -1.38550646     -0.08262103     -1.42383901
H      -1.53823838     -2.21163313     -0.15173798
H      -2.25342890     -1.36529421      1.22337234
H      -3.14201411     -1.46655955     -0.30033490
H      -2.01964089      1.94752611     -0.33808939
H      -2.59515647      1.13819569      0.95635558
