14
b3lypvtz=-203684.87349069
C      -1.21423119      0.51776351      0.24306329
C      -0.87044487     -0.97816267      0.16457825
N       0.53380431     -1.11827937     -0.31644011
C       1.48910303     -0.38272132      0.48863519
C       0.97443282      0.21176308     -0.78351089
C      -0.13504688      1.19687351     -0.60936998
O      -0.19245295      2.29957201     -1.09122963
H      -2.19667200      0.75635404     -0.15896989
H      -1.17620619      0.92695063      1.25485117
H      -1.50366922     -1.48049258     -0.56621794
H      -0.97500430     -1.50352001      1.11353700
H       2.49526947     -0.78152591      0.49316336
H       1.16826766      0.05469803      1.42829963
H       1.60285031      0.28072707     -1.66038946
