19
b3lypvtz=-171829.59391016
C      -2.06061321     -1.21408484      0.01483384
C      -1.57289585      0.19463221     -0.14154695
C      -0.34878515      0.67792404      0.08838605
C      -0.06714851      2.15455511     -0.03361606
C       0.81713847     -0.14893221      0.53903470
C       1.23592707     -1.43169031     -0.12959787
C       2.08565082     -0.20071701     -0.28061204
H      -2.37320363     -1.63615424     -0.94566074
H      -2.94274253     -1.23651992      0.66099624
H      -1.31192905     -1.87229920      0.44797794
H      -2.33129661      0.90474185     -0.46144901
H       0.29389203      2.55889713      0.91735882
H      -0.95848713      2.71214144     -0.32075083
H       0.71582223      2.35383988     -0.76965643
H       0.98749603     -0.11234397      1.61157200
H       1.60086570     -2.23881010      0.49128568
H       0.67601013     -1.75455258     -0.99558864
H       3.03459924     -0.15748958      0.23585305
H       2.08026795      0.28877529     -1.24519075
