18
b3lypvtz=-181901.98660286
C      -2.75929870      0.00010316     -0.43380827
C      -1.49721796      0.00002715      0.40838548
C      -0.41280276      1.07691083      0.14631273
C       0.68459509     -0.00008983      0.39935627
C       1.88748131     -0.00011558     -0.48701813
N       3.11152943     -0.00003155     -0.15885525
C      -0.41291549     -1.07696486      0.14628830
H      -3.37195029     -0.88140154     -0.23068589
H      -3.37181331      0.88171367     -0.23073109
H      -2.51881662      0.00005620     -1.49975029
H      -1.76094423      0.00003085      1.46884889
H      -0.41570529      1.39332946     -0.89935571
H      -0.39667895      1.96362846      0.77896388
H       0.99481376     -0.00011423      1.44649876
H       1.66631709     -0.00014759     -1.55996063
H       3.21208352      0.00001407      0.85954700
H      -0.39688883     -1.96370138      0.77891583
H      -0.41585278     -1.39335529     -0.89938988
