16
b3lypvtz=-204479.37741103
C      -3.36950372      0.17486526      0.01155805
C      -2.03793034     -0.50973970     -0.00655769
C      -0.87066667      0.13102631     -0.00278526
N       0.37676369     -0.49734798     -0.01926001
C       1.57026192      0.18593911     -0.00875033
C       2.81003577     -0.68575545      0.01521179
O       1.62981494      1.40061914      0.00131830
H      -3.25804186      1.25942341      0.02725248
H      -3.96620744     -0.08879684     -0.86632107
H      -3.95594187     -0.11521631      0.88804265
H      -2.04620471     -1.59694367     -0.02351077
H      -0.79409180      1.20947659      0.01308103
H       0.40207044     -1.50341030     -0.02990198
H       3.22556069     -0.67987119      1.02442006
H       3.55357101     -0.25037175     -0.64926967
H       2.62242196     -1.71879763     -0.27823558
