12
b3lypvtz=-202869.02829946
N       0.94086187      0.09179083     -0.01754857
C       0.38183863      0.86963290      0.79925617
C       0.79798946      1.94604317      1.81367020
O      -0.00738651      3.10322928      1.43346479
C      -1.14122127      2.34401723      1.87277661
C      -0.98851814      0.90194440      1.37100553
C      -0.37567195      1.40461384      2.71163446
H       1.93807341      0.29414223     -0.09249605
H       1.82344171      2.17424873      2.08158516
H      -2.09289418      2.83460314      2.00609123
H      -1.81508789      0.22650977      1.21837270
H      -0.45442515      1.00742446      3.71058778
