11
b3lypvtz=-262261.4843856
N      -1.88554868     -0.07536990     -0.42620257
C      -1.09963426      0.67877863      0.33866390
F      -1.77919417      1.64947798      0.96326974
N       0.15700807      0.61567332      0.55518442
C       0.88452567     -0.38970977     -0.08693587
N       2.20119852     -0.33415843      0.23230056
O       0.43812349     -1.24444108     -0.85533388
H      -1.41166809     -0.82722562     -0.91951955
H      -2.87005736      0.10813396     -0.48914003
H       2.53684358      0.37405949      0.85803050
H       2.82850323     -1.00521858     -0.17041722
