16
b3lypvtz=-225319.06951121
C       2.77473083     -0.89843627      0.06870837
O       1.67812084     -0.16585021     -0.43769645
C       1.03924802      0.63426966      0.53877363
C      -0.17276587      1.28756789     -0.10803730
N      -1.17724497      0.34272458     -0.54906932
N      -2.11606340     -0.01900109      0.32709324
N      -2.71559375     -1.07491725      0.02518454
H       2.46502643     -1.58563906      0.86528565
H       3.18872061     -1.47528787     -0.75612462
H       3.55279130     -0.23424943      0.46483757
H       0.72395713      0.01983586      1.39258635
H       1.72483513      1.40840334      0.91223186
H       0.15478394      1.87255170     -0.96936518
H      -0.65016592      1.96250038      0.60143464
H      -0.91528718     -0.36610878     -1.22917505
H      -3.42921613     -1.20176146      0.74473306
