17
b3lypvtz=-217685.47770506
C      -2.70748528      0.22516770     -0.00054742
C      -1.44574685     -0.52045216     -0.43390221
C      -0.24663435     -0.24782972      0.46537832
C       0.41086262      1.14030966      0.28194224
O       1.57773195      0.87112842     -0.48967811
C       1.98689127     -0.40371719     -0.06086727
O       0.81193130     -1.16215085      0.12873304
H      -3.54354900     -0.00972750     -0.65978534
H      -3.00071918     -0.04951484      1.01525906
H      -2.57006846      1.30840705     -0.02278148
H      -1.17582629     -0.25857310     -1.46049325
H      -1.62956024     -1.59690581     -0.42411765
H      -0.52794439     -0.40279668      1.51271328
H       0.68341991      1.58376113      1.24641466
H      -0.20697273      1.84464446     -0.27166731
H       2.59794201     -0.86454536     -0.83594806
H       2.55114770     -0.33040821      0.88293849
