12
b3lypvtz=-179581.36452532
C       3.06196326     -0.18303145      0.01788607
C       1.89207513     -0.47756480      0.00066782
C       0.52012502     -0.79579778     -0.01363684
C      -0.44991552      0.15884953     -0.01030377
N      -0.18838324      1.51274109     -0.06467497
C      -1.82766653     -0.20992840      0.00004779
C      -2.99534223     -0.49253746      0.02145684
H       4.09569610      0.05591164      0.02850373
H       0.22484677     -1.83418007     -0.03225968
H      -0.89857058      2.12637103      0.29593141
H       0.76021084      1.78530860      0.14214324
H      -4.02348302     -0.75643193      0.03588836
