14
b3lypvtz=-224563.74960421
C      -1.55229335      0.59447825     -0.52958325
C      -1.81795542     -0.62876866      0.26517632
N      -0.55405779     -0.46441969     -0.48806836
C       0.61608496     -0.24532933      0.26072331
N       0.98061931      0.88605081      0.69158576
N       2.17132968      0.94170308      1.42326040
O       1.35014922     -1.38132360      0.45101989
H      -1.31611061      1.50082982      0.01072341
H      -2.02908757      0.72404823     -1.49225045
H      -1.75776211     -0.54245296      1.34309679
H      -2.48010272     -1.39748028     -0.11114188
H       2.57781369      1.85468503      1.27689739
H       2.83050731      0.21851556      1.14748461
H       0.98086537     -2.06053628     -0.12630598
