11
b3lypvtz=-241316.47217464
C      -0.24053674      1.90788548      0.00001356
C       0.14983184      0.62818971     -0.00004420
C       1.60878940      0.35415549     -0.00002369
O       2.12419662     -0.73842254     -0.00005273
C      -0.81027773     -0.49741351     -0.00008402
N      -0.61077467     -1.72843145      0.00006830
F      -2.09228718     -0.05797629     -0.00004015
H       0.49460848      2.70341882      0.00007366
H      -1.28287505      2.18853212     -0.00000140
H       2.22874108      1.27121411      0.00008499
H       0.39004494     -1.92072693      0.00005467
