12
b3lypvtz=-202935.35920722
O       2.37939329     -0.97596153      0.27242088
C       1.61769946      0.12248360      0.26020773
C       0.28424688      0.18251434      0.06095655
C      -0.69941466     -0.85515602     -0.18953951
C      -1.88160039     -0.20228214     -0.30851294
N      -1.75475339      1.19266572     -0.15536824
C      -0.49433863      1.41505898      0.05950909
H       1.83488296     -1.75848359      0.11413500
H       2.20602926      1.01425226      0.43577865
H      -0.53733543     -1.91888083     -0.26660788
H      -2.85522181     -0.62691820     -0.49871581
H      -0.09948754      2.41070741      0.21563648
