16
b3lypvtz=-202012.45697781
C       1.41145285      1.56311413      0.21750366
C       1.56319557      0.21185675     -0.43595572
C       1.68943707     -1.04014037      0.38862900
C       0.44887909     -0.80759388     -0.43241026
N      -0.76249339     -0.53135249      0.27368192
N      -1.67678665      0.24704639     -0.31774828
N      -2.81901975      0.14184159      0.17860383
H       0.90947694      2.26605444     -0.44949310
H       0.82409738      1.49851084      1.13244897
H       2.38960466      1.97613594      0.47230300
H       2.13536153      0.22171999     -1.35590623
H       2.36695904     -1.82188214      0.07579502
H       1.58865721     -0.93116478      1.46060939
H       0.33746626     -1.40421491     -1.33236499
H      -1.14216101     -1.22955706      0.90899842
H      -3.40395581      0.80880557     -0.32772962
