15
b3lypvtz=-214466.46575049
C       3.36111763     -0.08669244     -0.11488960
N       1.96559276     -0.44649765     -0.33075171
C       1.03535314      0.41195984      0.39488312
C      -0.37830409     -0.02734971      0.21033376
C      -1.39961280      0.76819824     -0.10798701
N      -2.74096047      0.29011920     -0.32383908
O      -2.99160357     -0.79832063      0.14706527
H       3.65779867     -0.05837664      0.94531537
H       3.55305359      0.90097092     -0.53891987
H       4.00356586     -0.79811682     -0.63290458
H       1.81531886     -1.41266809     -0.06551033
H       1.24096616      0.43208778      1.48312769
H       1.16173770      1.43843346      0.04234917
H      -0.59885150     -1.08156909      0.35673556
H      -1.29171995      1.82021363     -0.33566278
