15
b3lypvtz=-214530.95493049
C      -2.14749145     -1.01602807     -0.42042070
C      -1.25226543     -0.15611758      0.06406293
N      -1.47815217      1.11752330      0.55746105
O       0.04797871     -0.63303009      0.25162213
C       1.14553931      0.08641415     -0.08981729
C       2.38133481     -0.70225391      0.23748416
N       1.06542913      1.23922401     -0.60978447
H      -3.17597544     -0.71907658     -0.55799456
H      -1.86316056     -2.03105181     -0.64409402
H      -2.42390243      1.42940736      0.39618857
H      -0.79004885      1.78124447      0.21891478
H       2.36893494     -1.65173231     -0.29880789
H       2.40277482     -0.93220649      1.30335456
H       3.27863009     -0.14919860     -0.02954384
H       1.98802751      1.61385316     -0.80212339
