16
b3lypvtz=-227780.41075769
C      -2.66393365     -0.47628517      0.57498929
C      -1.76283182     -0.10868751     -0.60230207
N      -0.35377658     -0.36315738     -0.34652177
C       0.51729704      0.60327714      0.02572970
O       0.24240911      1.78690749      0.13810541
C       1.93546497      0.11153785      0.32345906
O       2.18783018     -1.24929195     -0.01872479
H      -3.70952394     -0.28374908      0.32800035
H      -2.56895882     -1.53293198      0.83267765
H      -2.40616194      0.11542764      1.45354574
H      -1.85091829      0.95310273     -0.82588943
H      -2.05856427     -0.66496385     -1.49456370
H      -0.00725483     -1.30938017     -0.32335866
H       2.09296837      0.20279280      1.39899384
H       2.62964381      0.79745348     -0.16616974
H       2.43688665     -1.29095701     -0.94651786
