14
b3lypvtz=-201264.42829164
C      -2.08655788     -1.36047598     -0.01656203
C      -0.75880974     -1.22000803      0.00889531
C      -0.01612724      0.03270815      0.02695646
C       1.34358444      0.11043677      0.03076311
N       2.23263151     -0.91014983     -0.05820985
N      -0.79626195      1.20981711      0.10159019
N      -0.21472331      2.29590177     -0.10201937
H      -2.53841153     -2.34258595     -0.02196555
H      -2.74354445     -0.50281780     -0.02488631
H      -0.16191596     -2.12766546      0.01406223
H       1.78129106      1.09875120      0.08788997
H       1.92308873     -1.86544869     -0.02958397
H       3.18963189     -0.74902902      0.19783280
H      -0.92075756      3.02992673      0.02550900
