14
b3lypvtz=-226949.56697934
O      -3.15643330      0.32300268     -0.01842206
N      -1.89736100     -0.24514460      0.22437835
C      -1.10315881     -0.05818959     -0.74425745
C       0.29079340     -0.59663779     -0.70294604
C       0.90513539     -0.97288805      0.65639855
C       1.91824864      0.14495504      0.35741913
O       1.26787316      0.46332334     -0.90019058
H      -3.64292146      0.11582094      0.78602718
H      -1.40868182      0.49577768     -1.63144654
H       0.40361362     -1.35946044     -1.48172821
H       1.31684049     -1.97733254      0.71119542
H       0.24848951     -0.79889393      1.50317998
H       2.94887539     -0.18059155      0.20050759
H       1.90868678      0.99705882      1.03978468
