15
b3lypvtz=-240228.92643793
C       2.19717956     -1.18561796     -0.17514348
O       1.01268393     -0.66431958      0.41976939
C       0.46867334      0.44350387     -0.25228166
O       1.29738167      1.57992631     -0.17686549
C      -0.91564133      0.69788403      0.35017603
C      -1.84638818     -0.48130554      0.18360221
O      -2.85131060     -0.45197829     -0.48029736
H       2.00326119     -1.52581351     -1.19792528
H       2.99438990     -0.44048233     -0.19271847
H       2.50500586     -2.03436784      0.43109931
H       0.39186884      0.23672252     -1.32540263
H       1.37235207      1.83816368      0.74989316
H      -0.78118800      0.88393348      1.42164419
H      -1.35946842      1.57403950     -0.11871334
H      -1.53972683     -1.40352833      0.71179141
