19
b3lypvtz=-171830.80587568
C      -2.96583154     -0.09244542      0.60440156
C      -1.92407273     -0.22202129     -0.51481656
C      -0.73554850      0.67344415     -0.31530275
C       0.52443279      0.27386399     -0.21825202
C       1.20910389     -1.08561895     -0.19007368
C       2.46642774     -0.38286365      0.40301775
C       1.83221913      0.99764271      0.05893935
H      -2.54101322     -0.37706062      1.56846360
H      -3.32219025      0.93617054      0.69142624
H      -3.83125535     -0.72963835      0.41341934
H      -2.40370973      0.02192913     -1.46952715
H      -1.59520769     -1.26048565     -0.59521360
H      -0.94518627      1.73823899     -0.23359880
H       0.74487922     -1.86451584      0.41601663
H       1.38778779     -1.49329378     -1.18826171
H       3.42043370     -0.61232113     -0.06838749
H       2.55907267     -0.53977974      1.47666930
H       1.82293518      1.75201339      0.84645746
H       2.26742617      1.44491051     -0.83820246
