16
b3lypvtz=-181091.69774446
N       1.31120364     -0.94429607     -0.14465557
C       0.72574820     -1.24561558     -1.41114070
C       0.28518828     -0.35119767     -2.59825896
C      -0.04235526     -1.78632479     -3.04225036
C      -0.48312320     -2.22610422     -1.60729731
C       0.43115762     -3.46334810     -1.61654121
C       1.23380613     -2.38406265     -2.36345955
H       0.71278538     -0.33965157      0.40575069
H       2.20485180     -0.47873109     -0.25080817
H      -0.56284913      0.31591251     -2.42429595
H       1.07712893      0.16510839     -3.14670764
H      -0.48413996     -2.12924786     -3.97409278
H      -1.47759993     -2.10049672     -1.17892629
H       0.82680650     -3.78045917     -0.65190501
H       0.09359687     -4.31911349     -2.20382653
H       2.22649413     -2.44117193     -2.81028465
