14
b3lypvtz=-201241.24853094
C      -0.34103525      1.87032189     -0.12822856
C      -0.44961839      0.55277493      0.05752650
N      -1.77032690      0.03308696     -0.11603074
N      -1.87452527     -1.18711802      0.10546023
C       0.65298556     -0.36768385      0.43564002
C       1.57038957     -0.90936556     -0.60168815
N       2.05803121      0.04631073      0.40303894
H       0.58942974      2.40198841      0.00906647
H      -1.21234046      2.43881267     -0.41990066
H      -2.86182696     -1.42822233     -0.05293653
H       0.41013961     -1.02677008      1.25929258
H       1.43506184     -0.56303790     -1.61924027
H       1.94757004     -1.91914249     -0.50349683
H       2.15609968      0.96505562     -0.01550800
