15
b3lypvtz=-191179.78393455
C      -1.98662722     -0.61058017      0.20057773
N      -0.73524856     -0.72747842     -0.54417238
C       0.42837829     -0.14642363      0.13249661
C       1.68265460     -0.52241420     -0.64838904
N       2.70953239     -1.11509817     -0.21802159
C       0.36567488      1.31686820      0.29723084
C       0.30197966      2.51300580      0.37986712
H      -2.79053542     -1.04591389     -0.39211623
H      -1.91042356     -1.18363051      1.12649424
H      -2.26148070      0.42033511      0.45873714
H      -0.83740852     -0.29398402     -1.45474721
H       0.49635744     -0.60862575      1.12201083
H       1.66115243     -0.23408543     -1.70226106
H       2.62465570     -1.33206948      0.77769910
H       0.25133861      3.57009457      0.46459391
