13
b3lypvtz=-237085.86537491
N      -2.38995999     -0.99874797     -0.10196857
C      -1.33479515     -0.08577550      0.02372471
O      -1.74224076      1.22542660      0.08140339
C      -0.03224776     -0.37800993      0.03496312
N       0.95811636      0.61200397     -0.04093447
C       2.29107181      0.34252108     -0.03011488
O       2.77938096     -0.76709129      0.04115986
H      -2.07855558     -1.93257653     -0.32683081
H      -2.99919490     -1.02021659      0.70883988
H      -2.56173512      1.29731103     -0.42429901
H       0.33571730     -1.38789096      0.09977204
H       0.65769597      1.57184429     -0.09507338
H       2.89643986      1.26283482     -0.09375688
