15
b3lypvtz=-193612.33200295
C      -2.89705070     -0.57151826      0.00804253
C      -2.18358084      0.54442284      0.18008533
C      -0.73002923      0.66067840      0.15769423
C       0.10626919     -0.14372091     -0.52295495
C       1.55876604     -0.10260585     -0.50376227
C       2.30130006      0.30900942      0.53197821
O       3.65532142      0.39152952      0.56940043
H      -3.97831970     -0.55031551      0.00731636
H      -2.42662776     -1.53767517     -0.12542730
H      -2.72102986      1.46906648      0.37095649
H      -0.31300640      1.49657261      0.71093837
H      -0.33079284     -0.89067902     -1.17921503
H       2.07149771     -0.46615349     -1.39116987
H       1.86919708      0.60678980      1.47800392
H       4.01798583      0.15249914     -0.29198646
