11
b3lypvtz=-192084.22752725
C      -2.91412820     -0.02098416      0.00001329
C      -1.71271013      0.02760235      0.00002052
C      -0.30837068      0.10345707      0.00002893
C       0.55850261      1.15955603      0.00000216
C       1.87150986      0.60880203      0.00001497
C       1.71542742     -0.73981596     -0.00000780
O       0.40137516     -1.07256896     -0.00000921
H      -3.97455597     -0.06406196      0.00001421
H       0.28008742      2.19885256     -0.00001392
H       2.80477711      1.14485572      0.00002944
H       2.40794538     -1.56238871     -0.00002060
