14
b3lypvtz=-203683.15677538
C      -1.04043447     -0.91301928      0.62854972
C      -0.89720999      0.25597466     -0.30268133
C      -0.19122520     -1.03503539     -0.61933476
N       1.23219895     -1.10498313     -0.47775117
C       1.82243480     -0.13170393      0.06800373
O       1.29167783      1.02665060      0.53848642
C      -0.00557551      1.42102043      0.04304439
H      -1.98773254     -1.43373732      0.65087012
H      -0.51353809     -0.88654394      1.57321817
H      -1.75605366      0.52644231     -0.90492819
H      -0.57162634     -1.65885130     -1.41583853
H       2.89299621     -0.15502528      0.24315701
H      -0.42945600      2.05369277      0.82314768
H       0.15354402      2.03511879     -0.84794324
