16
b3lypvtz=-204409.35296367
C       2.13921239      0.21434085     -0.16722958
N       0.91150729      0.81890434      0.34595394
C      -0.27551245      0.09000369      0.09839109
C      -0.84524813     -1.11045536      0.86833432
O      -2.20425438     -0.61873518      0.68394864
C      -1.70927189      0.55473462      0.02646717
C      -0.99347522      0.18675155     -1.23271803
H       2.36031783     -0.78074607      0.24305940
H       2.98238403      0.86891101      0.05421099
H       2.06588251      0.11932105     -1.25131400
H       1.00160192      1.04940065      1.32733974
H      -0.58119514     -1.10332288      1.92970496
H      -0.70503717     -2.11145673      0.45322174
H      -2.18726295      1.50217970      0.23107466
H      -0.66425034      1.02234383     -1.83623761
H      -1.29519831     -0.70217507     -1.77410745
