11
b3lypvtz=-210612.58851792
N       2.13808930      0.28328059     -0.16265095
C       0.81589078      0.02721863     -0.01754035
N      -0.05306819      0.93278942     -0.50165401
C      -1.32338592      0.60244708     -0.36372589
C      -1.69927349     -0.59357033      0.24215875
N      -0.78295844     -1.43563558      0.71215741
N       0.49241034     -1.13358869      0.58993933
H       2.41850774      1.20318665     -0.44954805
H       2.78982823     -0.30417992      0.32552571
H      -2.06285615      1.30311188     -0.73790823
H      -2.73318421     -0.88485973      0.36334628
