14
b3lypvtz=-203688.21525475
C      -3.09501260     -0.37633372      0.00000591
C      -1.91423942      0.24559034      0.00001264
N      -0.68380270     -0.38119881     -0.00000191
C       0.56107149      0.23091302     -0.00000474
C       0.82990731      1.54461949     -0.00000347
C       1.68571048     -0.75053358     -0.00000537
O       2.85594361     -0.47248695      0.00000442
H      -4.00868500      0.19632191      0.00002087
H      -3.17983725     -1.45575919     -0.00001400
H      -1.86373940      1.32510315      0.00003209
H      -0.68727695     -1.38899123     -0.00001287
H       0.07147668      2.31171830     -0.00000254
H       1.86500453      1.84803854     -0.00000500
H       1.36190322     -1.81601226      0.00001297
