14
b3lypvtz=-201242.52540603888
C      -1.83316144     -0.66117239      0.01846714
C      -1.35990108      0.56101643      0.71910806
N      -0.41963485     -0.48418558      0.33453655
C       0.45367309     -0.17956491     -0.80629280
C       1.70772052      0.53800210     -0.41195994
N       2.74528195     -0.13143009     -0.02111890
N       3.65300810     -0.73264036      0.29332395
H      -2.14045195     -0.55002770     -1.01725157
H      -2.34328566     -1.44564690      0.56277643
H      -1.35419526      1.48590591      0.14944448
H      -1.52211649      0.68319490      1.78234285
H       0.70183354     -1.12860585     -1.28595048
H      -0.06569772      0.43625572     -1.55610027
H       1.77692725      1.60889870     -0.30738839
