21
b3lypvtz=-195912.09888469
C       2.40084639     -0.79175231     -0.35671439
C       1.60088286      0.33584407      0.29960529
C       0.20754872      0.60209574     -0.29812239
C      -0.40917562      1.86895166      0.30425376
C      -0.74329298     -0.61329439     -0.22071098
C      -1.17165483     -1.01391411      1.18250338
O      -1.95635878     -0.36006864     -0.94544103
H       2.48347969     -0.64066022     -1.43582072
H       3.41372823     -0.83156103      0.04735280
H       1.94955066     -1.77114591     -0.19423081
H       1.50448044      0.14192847      1.37194995
H       2.17525127      1.26304367      0.21989854
H       0.35519833      0.78592483     -1.37190892
H      -0.46220563      1.80862193      1.39303832
H      -1.41803072      2.03214859     -0.07309083
H       0.19464415      2.74359165      0.05596533
H      -0.23657634     -1.46871063     -0.68136416
H      -1.81776407     -1.88992117      1.13030797
H      -1.73180862     -0.21267163      1.66409050
H      -0.31131539     -1.26103699      1.80491447
H      -1.72934777     -0.16642657     -1.86040510
