15
b3lypvtz=-193573.55144055
C       1.48952658     -0.79307690     -0.21420597
C       1.58148803      0.67977145      0.11702379
C       0.24884007      0.01956418     -0.01541566
C      -0.85368585     -0.22484904      1.04668329
C      -1.87997595      0.03550043     -0.06668405
C      -0.81971777      0.27330695     -1.05710677
O      -1.64200278      1.35241745     -0.57844471
H       1.74130296     -1.10385299     -1.22012604
H       1.75876049     -1.50745971      0.55280974
H       1.89565268      1.36129821     -0.66224886
H       1.91169825      0.95414336      1.11003741
H      -0.90075210      0.47103665      1.88417885
H      -0.86565252     -1.25232580      1.41124023
H      -2.87450616     -0.37128401     -0.18249065
H      -0.79097596      0.10580977     -2.12525059
