18
b3lypvtz=-205194.13799845
C      -0.99704544     -1.00468801     -0.71709759
C      -0.30402970      0.17635612     -0.02876685
C      -1.03551091      0.52254290      1.28451425
C      -0.31689306      1.40830773     -0.95701106
C       1.13388357     -0.13213289      0.31125559
N       1.66989141     -1.24771775      0.04384611
O       3.01579966     -1.28611376      0.46184930
H      -0.99772950     -1.88849850     -0.07967970
H      -0.49547614     -1.27058938     -1.64720497
H      -2.03199325     -0.74373265     -0.94604463
H      -2.06645332      0.81519252      1.07637900
H      -0.55073926      1.35167322      1.80409076
H      -1.05464907     -0.33462780      1.95909812
H      -1.34450382      1.70499688     -1.17565545
H       0.18625541      2.26046653     -0.49544810
H       0.18307293      1.19168883     -1.90209751
H       1.71589201      0.64796012      0.80608302
H       3.29032847     -2.17108412      0.20198970
