15
b3lypvtz=-214516.58739828
C      -2.61031235     -0.90930480     -0.18081398
C      -1.58082959     -0.05989020     -0.05035863
N      -1.72812688      1.32375810      0.13094205
N      -0.28501447     -0.60364771     -0.02603049
C       0.71515535      0.09715071      0.32889207
C       2.09947112     -0.48193637      0.33944492
O       3.01327323      0.33654626     -0.39122780
H      -3.63425981     -0.56384123     -0.20619564
H      -2.41820886     -1.96877345     -0.22590605
H      -1.08510084      1.88180221     -0.41402817
H      -2.67500815      1.64275228     -0.00924487
H       0.63947371      1.14129442      0.64704486
H       2.48223987     -0.50078840      1.36286670
H       2.06746737     -1.50767609     -0.03586308
H       2.77466633      0.29093627     -1.32261588
