15
b3lypvtz=-193553.24426134
C       1.02945736     -0.33316893     -0.08756700
C       0.39054502     -1.52780538     -0.72831192
C      -0.29770191     -1.67951582     -2.10372940
C      -0.41847924     -3.09435692     -1.50598533
C      -0.59963090     -2.54392703     -0.06436129
O       0.45437934     -3.37276731      0.52016404
C       0.95959426     -2.98563138     -0.79685012
H       1.41841319     -0.59801765      0.89748623
H       0.31047243      0.47952023      0.03595881
H       1.85742947      0.04309330     -0.69210672
H      -1.22866826     -1.12835403     -2.24568637
H       0.34183529     -1.57390470     -2.98155886
H      -0.86693089     -3.99507741     -1.91728286
H      -1.50660956     -2.36509898      0.50924423
H       1.93899442     -3.34098802     -1.11001345
