18
b3lypvtz=-181886.75807744
C       1.99748655     -1.23687229      0.22964662
C       1.00948013     -0.79109031     -0.53669843
C       0.02295533      0.27581844     -0.20608811
N      -1.32800741     -0.09792436     -0.56371909
C      -1.97432659     -1.02408965      0.36009116
C       0.41498694      1.70825160     -0.46473032
C       0.26547512      1.21900969      0.95533315
H       2.17126345     -0.85704419      1.22842886
H       2.67378946     -2.00460456     -0.12190371
H       0.85848867     -1.22289468     -1.52184927
H      -1.89842326      0.72565126     -0.69791347
H      -1.42925863     -1.96862299      0.37226217
H      -2.02953714     -0.65880443      1.39593692
H      -2.98686376     -1.22940498      0.01197065
H       1.41254371      1.89600979     -0.83564601
H      -0.34271026      2.37200268     -0.86300298
H      -0.60608106      1.54273392      1.50796760
H       1.15894275      1.11690904      1.55458028
