18
b3lypvtz=-205210.86588245
N      -2.52076748      1.04473071      1.01348522
C      -2.18159393      0.00209429      0.38035972
C      -1.29654679     -0.11173617     -0.83113149
C      -0.12114139     -1.08663105     -0.62759870
C       0.90439392     -0.66331278      0.42942266
C       1.71848609      0.56355017      0.05064371
O       2.69891310      0.76348263      1.06568055
H      -2.09825599      1.87678155      0.59332097
H      -2.57903764     -0.94827437      0.75135773
H      -1.90915317     -0.48377052     -1.65975173
H      -0.94427620      0.88134755     -1.12043633
H      -0.52647610     -2.06329812     -0.35021929
H       0.38149314     -1.23269175     -1.58765195
H       0.41159228     -0.47440311      1.38634881
H       1.60477955     -1.48451841      0.59756108
H       1.07328820      1.44553865     -0.03684921
H       2.19587735      0.40382986     -0.92561192
H       3.18842506      1.56738087      0.87107020
