14
b3lypvtz=-208659.96740097
C       2.37769817      1.13845486     -0.53179705
C       1.58825012      0.45272329      0.05852367
C       0.65477413     -0.37348674      0.76841142
C      -0.08275329     -1.48297669      0.04274041
C      -0.84287237     -0.27986589      0.51319656
C      -1.40582916      0.68541893     -0.48125402
F      -1.64280559      1.91983029      0.12768995
H       3.07490939      1.74954541     -1.04803709
H       0.93202251     -0.58026926      1.79442557
H      -0.22346061     -2.41998640      0.56222461
H       0.11181675     -1.57734245     -1.01666347
H      -1.46098124     -0.41208989      1.39241370
H      -0.71800923      0.85153246     -1.31157996
H      -2.36255957      0.32851209     -0.87019429
