16
b3lypvtz=-204413.67079361
C      -1.84250022      0.07601787     -0.76109063
C      -1.73595373      0.78946139      0.53886031
N      -0.54164534      0.48908512     -0.24521817
C       0.33333656     -0.53511900      0.26014745
C       1.45079623     -0.99596722     -0.65199903
C       1.74597876     -0.07800283      0.50454537
O       2.06324412      1.26157826      0.27584345
H      -2.18617073      0.59846624     -1.64477551
H      -2.07881215     -0.98194478     -0.73197081
H      -1.89975327      0.21080012      1.44161706
H      -2.00149906      1.83619239      0.61291364
H      -0.10971923     -1.26600458      0.93457669
H       1.48364370     -0.55252226     -1.63793937
H       1.75873504     -2.03152064     -0.59888916
H       2.28189166     -0.47653237      1.35564708
H       1.27842764      1.65601229     -0.13271849
