15
b3lypvtz=-214542.01034848
C      -2.71398274     -0.02605144     -0.03233698
C      -1.71810689     -0.90782111      0.02990607
N      -0.34494988     -0.64900809      0.06078607
C       0.28511311      0.55967073      0.03068762
O      -0.26619520      1.64309756     -0.02980383
C       1.81382407      0.46357158      0.11371645
N       2.33727804     -0.88703702     -0.11105388
H      -3.72945212     -0.39434473     -0.04964836
H      -2.54205208      1.03665679     -0.06584158
H      -1.92885581     -1.96988341      0.06295218
H       0.29325366     -1.43217847      0.10893964
H       2.20694818      1.21976726     -0.57036874
H       2.08230591      0.78695444      1.12115939
H       3.18352210     -1.04852122      0.41731800
H       2.55798466     -1.03839984     -1.08695806
