20
b3lypvtz=-182681.33141287
C      -2.37944334      0.25980172     -0.97774529
C      -1.85400288     -0.76235813      0.02917446
C      -0.86034032     -0.17835512      1.05399992
C       0.43824133      0.31503986      0.44310081
N       0.71328245      1.53609347      0.22101743
C       1.45050792     -0.75205096      0.08560823
C       2.70386914     -0.25021125     -0.62075808
H      -3.08525178     -0.20239061     -1.66943084
H      -2.89922130      1.07726435     -0.47235181
H      -1.57250678      0.69683153     -1.56749279
H      -2.69315753     -1.19194140      0.58183305
H      -1.38561391     -1.59518619     -0.50122103
H      -1.33857530      0.65103135      1.58214117
H      -0.63559556     -0.94669791      1.79933060
H      -0.05036747      2.14145003      0.52511965
H       0.95066034     -1.51357732     -0.52228808
H       1.71965448     -1.26899520      1.01445097
H       3.38222574     -1.07953279     -0.82718216
H       2.45443341      0.23515312     -1.56384875
H       3.22798235      0.48468845     -0.01163046
