10
b3lypvtz=-220639.11800527
N      -2.44277425     -0.37917050      0.00031536
N      -1.63147838      0.56531389      0.00035637
C      -0.27965867      0.19693452      0.00017286
C       0.75437445      1.10655805      0.00007292
N       1.85619688      0.33781510     -0.00007786
H       2.82488178      0.61171050     -0.00030241
N       1.53529173     -0.98160630      0.00010540
N       0.24981573     -1.06514233     -0.00011697
H      -3.37758521      0.05103465      0.00023155
H       0.76475892      2.18085643      0.00011977
