14
b3lypvtz=-201240.56169044
C      -3.01358657     -0.35415722     -0.00009903
N      -1.74967309     -0.46995216      0.00049146
N      -1.12101502      0.79077067      0.00013143
C       0.14996783      0.76109472      0.00010527
N       0.97750260     -0.37945055      0.00004938
C       2.24662116     -0.20563639      0.73599334
C       2.24652605     -0.20567325     -0.73607057
H      -3.60557247     -1.26277103     -0.00044542
H      -3.51339226      0.61497658     -0.00020292
H       0.64061687      1.73992992      0.00010775
H       2.55877767     -1.08033951      1.29019639
H       2.41187745      0.74163935      1.23866736
H       2.55861016     -1.08040063     -1.29027672
H       2.41172060      0.74157952     -1.23880773
