18
b3lypvtz=-205207.37716823
C       1.90230047     -0.26303477     -0.35379378
C       1.23227531     -0.23684655      1.04448910
C      -0.04529506      0.34555828      0.40213856
C       0.80192659      0.70260574     -0.86166480
C      -1.12901069     -0.70197956      0.14261924
N      -2.29285922     -0.05384634     -0.47671911
O      -0.60507279      1.42549889      1.11563122
H       2.93098549      0.08719528     -0.41380102
H       1.84602700     -1.24475181     -0.82363394
H       1.68309350      0.50494806      1.70234057
H       1.13372723     -1.17892572      1.58608538
H       0.36943767      0.50981304     -1.84527607
H       1.11420707      1.74451298     -0.80994001
H      -1.44660547     -1.10205094      1.10779094
H      -0.71875519     -1.53390951     -0.44287694
H      -3.12333036     -0.62384674     -0.38760219
H      -2.14195168      0.10462174     -1.46572723
H      -1.51109984      1.51443794      0.77994008
