12
b3lypvtz=-247096.82085523
C      -1.20980828     -0.75535883     -0.16533278
N      -0.27698308      0.32566022      0.11831027
C      -0.69453996      1.58154765      0.53699803
O       0.01675084      2.51622948      0.78849239
N       1.06752411      0.14499668     -0.01788242
N       1.37902074     -0.99094710     -0.39234023
O       2.74072311     -1.11079945     -0.51046441
H      -2.21753760     -0.38685312      0.00914196
H      -1.11277369     -1.08265449     -1.20046071
H      -1.01395025     -1.60954885      0.48279518
H      -1.79403749      1.61171716      0.61173504
H       3.11561155     -0.24418934     -0.26099232
