20
b3lypvtz=-182664.83449001
C      -2.68618371     -0.25422059      0.23770668
C      -1.39147470     -0.44232356     -0.53156889
C      -0.56771539      0.80615324     -0.94617889
C       0.72885659      0.02041930     -0.62508672
C      -0.13399283     -0.96076895      0.21612368
C       1.87666907      0.75227759      0.04264434
N       2.98462869     -0.16559688      0.33170628
H      -3.09206696     -1.21154834      0.57381007
H      -3.44805007      0.22921567     -0.37871009
H      -2.52902681      0.36911975      1.12146655
H      -1.57265037     -1.06554709     -1.41065041
H      -0.69433563      1.19102659     -1.95822950
H      -0.71867400      1.62667179     -0.23943107
H       1.10491124     -0.48412404     -1.51714347
H      -0.15660052     -0.66376279      1.26892024
H       0.09146059     -2.02565126      0.15763215
H       2.25218980      1.52419336     -0.63556969
H       1.49322597      1.27432264      0.93341844
H       3.76323018      0.33576012      0.74270071
H       2.69559886     -0.85561655      1.01632490
