11
b3lypvtz=-262230.34327414
C       1.08011946      0.09147792     -0.31857851
N       1.90126251      1.00699160     -0.62661943
N      -0.29054098      0.26648832     -0.10716348
C      -1.31862810     -0.60593205      0.22986179
N      -2.53365716     -0.34799608      0.39864974
F      -0.90209143     -1.85654406      0.37892614
O       1.49182954     -1.17497173     -0.16633381
H       1.48014832      1.92486316     -0.71526246
H      -0.59376037      1.21825997     -0.22273187
H      -2.75831178      0.63176884      0.26373838
H       2.44362998     -1.15440589     -0.33845118
