21
b3lypvtz=-195905.42778127
C       3.10476544     -0.58823095     -0.13567023
C       2.11070606      0.14072172      0.76684691
C       1.03200716      0.89371535     -0.00970123
O       0.22220718      0.03613209     -0.80673320
C      -0.90604277     -0.52165536     -0.14561662
C      -2.14388265      0.36641448     -0.24300575
C      -3.36648570     -0.26861224      0.41943046
H       3.84464208     -1.13544907      0.45036342
H       3.64166821      0.11559808     -0.77599114
H       2.59099048     -1.29863058     -0.78320674
H       2.63617574      0.86369506      1.39903585
H       1.63518933     -0.57054905      1.44842510
H       1.49899520      1.59577883     -0.70502068
H       0.41090223      1.48017972      0.67724000
H      -0.67512708     -0.73578309      0.90551491
H      -1.10137761     -1.48068648     -0.63179948
H      -2.34306726      0.56083507     -1.29940680
H      -1.93449661      1.33525104      0.21831445
H      -3.19589369     -0.44760100      1.48349989
H      -3.61289069     -1.22826972     -0.04052735
H      -4.24287605      0.37418111      0.32989224
