14
b3lypvtz=-224629.31931788
C      -3.20738271      0.16963868      0.00431410
N      -1.95504126     -0.55753945     -0.02489971
C      -0.88470261      0.10964030      0.02813064
N       0.34551921     -0.52790332      0.00990765
C       1.55382922      0.15581549     -0.00303022
N       2.65619397     -0.67101572     -0.04764901
O       1.63129369      1.36764314     -0.01030809
H      -3.80342997     -0.16351042      0.85692729
H      -3.08443410      1.25865302      0.06958716
H      -3.78386659     -0.06053525     -0.89443241
H      -0.80614355      1.19565783      0.09277251
H       0.31893544     -1.53021507     -0.09548603
H       3.52896924     -0.19773285      0.11590676
H       2.59370802     -1.60620839      0.31878737
