14
b3lypvtz=-203670.53752848
C      -3.22352725      0.29894601      0.16820128
C      -2.15739980     -0.22032787     -0.00123704
C      -0.86885449     -0.85971840     -0.20123421
C       0.34381447      0.06659527     -0.05259040
O       0.26596541      1.26670639     -0.11499625
C       1.66564944     -0.64363500      0.18030461
N       2.79198454      0.22898626     -0.08529103
H      -4.16391590      0.76750219      0.31746355
H      -0.75127028     -1.71033842      0.47696024
H      -0.81004418     -1.28077041     -1.21221449
H       1.69880644     -1.53651244     -0.45478178
H       1.60999957     -1.01810287      1.21622205
H       2.51309779      1.19009721      0.07830889
H       3.57744725      0.01665509      0.51338458
