17
b3lypvtz=-194368.95500239
C       2.80178694      0.10039758     -0.47851504
C       1.64831224     -0.24031801      0.09029437
C       0.42874717      0.58213192      0.07491438
C      -0.51385246      0.58513194      1.27898323
C      -0.95168860     -0.06281483      0.01585393
C      -2.02496659      0.55869605     -0.84221869
O      -1.01844730     -1.46854982      0.08950696
H       2.92420470      1.04136148     -1.00212946
H       3.66540139     -0.54924916     -0.43418125
H       1.57005712     -1.19257085      0.60425832
H       0.52172560      1.52533174     -0.45079565
H      -0.96303330      1.52476025      1.56993913
H      -0.25575572     -0.07384230      2.09629719
H      -1.95513855      1.64685450     -0.83706717
H      -1.93725095      0.22334251     -1.87943013
H      -3.01277705      0.27353193     -0.47543143
H      -0.80800662     -1.82867994     -0.77956770
