16
b3lypvtz=-204437.01569599
C      -1.58508013     -1.27166082      0.24256146
C      -0.87602476      0.00597217     -0.08974724
C       0.45329152      0.16726570     -0.00874547
O       1.28021725     -0.80254610      0.47405273
C       2.59824915     -0.78586381     -0.05926377
N      -1.68851241      1.02884663     -0.60553218
C      -1.56611952      2.22029695     -0.19259583
H      -2.23767546     -1.55557300     -0.58497427
H      -2.21896587     -1.14898830      1.12504463
H      -0.87603229     -2.07265558      0.43860130
H       0.93436844      1.07862804     -0.35111261
H       3.06749211      0.19288359      0.08432787
H       2.59695537     -1.02929349     -1.12551677
H       3.16674333     -1.53775631      0.48269513
H      -0.88903605      2.50571693      0.61926506
H      -2.15987066      3.00472741     -0.65506728
