19
b3lypvtz=-192727.74080824
C      -2.77280639     -0.16694918     -0.01226791
N      -1.60418309      0.33193508     -0.08519691
N      -0.55874574     -0.46275923     -0.41284782
C       0.77960434     -0.00067990      0.01076240
C       0.86605579      0.11845490      1.54139064
C       1.77101798     -1.05171678     -0.49681075
C       1.06087764      1.35359590     -0.64753072
H      -2.98061588     -1.22981641     -0.16455807
H      -3.59939728      0.49790444      0.19806945
H      -0.71310339     -1.45583917     -0.24611474
H       1.85646618      0.45581362      1.85221572
H       0.12877577      0.83232862      1.90840077
H       0.67346949     -0.84576136      2.01779900
H       1.57261723     -2.03091583     -0.05301728
H       1.71127369     -1.14837758     -1.58133611
H       2.78990790     -0.77064622     -0.23014813
H       1.01462913      1.26647613     -1.73357651
H       0.32575702      2.09256174     -0.33405017
H       2.05374660      1.70936422     -0.36839484
