17
b3lypvtz=-191972.87147187
C      -1.37751208      1.60263931     -0.21544318
C      -0.74641599      0.50774987      0.21123173
C      -1.47690478     -0.77359164      0.40297144
N      -2.46727733     -1.22777427     -0.24761646
C       0.72249816      0.48835067      0.54951016
C       1.57118785     -0.30235837     -0.47022157
N       2.99866643     -0.38511346     -0.17755831
H      -2.44000891      1.60216254     -0.42401722
H      -0.85567057      2.54143563     -0.34828699
H      -1.09363951     -1.40192592      1.21226511
H      -2.72774293     -0.58885192     -1.00286655
H       1.10257549      1.51023101      0.61371128
H       0.85972532      0.03487744      1.53782432
H       1.45147405      0.15323506     -1.45592359
H       1.18515303     -1.32073958     -0.55720660
H       3.15929521     -0.84086748      0.71330976
H       3.40735856      0.54005613     -0.11163231
