19
b3lypvtz=-192729.03463865
N       2.18973970     -1.35388062      0.08048228
C       1.95411555      0.09253933      0.06991060
C       0.60420299      0.54200049     -0.44980831
C       0.00000185      1.84725509      0.00000014
C      -0.60420218      0.54200190      0.44980887
C      -1.95411574      0.09254364     -0.06990992
N      -2.18974311     -1.35387580     -0.08048145
H       1.45053900     -1.82386512      0.59179022
H       2.16652546     -1.72217886     -0.86373052
H       2.08458573      0.46176198      1.09125564
H       2.74987023      0.55184170     -0.52248657
H       0.41506195      0.27219486     -1.48539316
H       0.54643300      2.43575501      0.72555305
H      -0.54642805      2.43575607     -0.72555286
H      -0.41506170      0.27219607      1.48539377
H      -2.08458517      0.46176648     -1.09125498
H      -2.74986937      0.55184780      0.52248726
H      -2.16652958     -1.72217400      0.86373138
H      -1.45054354     -1.82386202     -0.59178943
