10
b3lypvtz=-225490.17039847
C      -1.08507782      0.83019431     -0.04102312
C      -1.24523698     -0.50148140     -0.11436203
O      -0.19854950     -1.34969401     -0.07700375
C       1.10477118     -0.85765988      0.04106693
O       2.01957244     -1.62931147      0.07212272
C       1.18275552      0.60547296      0.11469085
N       0.16702012      1.39574409      0.07691587
H      -1.93243012      1.49807894     -0.07220038
H      -2.19323371     -1.01138597     -0.20729338
H       2.18040889      1.02004243      0.20708630
