16
b3lypvtz=-181131.51997886
C      -1.50480405     -0.57455537      0.23226917
C      -1.40787990      0.74900750      0.18977974
C      -0.18797911      1.46578265     -0.31703343
N       1.04235171      0.67562581     -0.41957099
C       1.49214627     -0.00977195      0.79071159
C       0.94166192     -0.78593747     -0.34979812
C      -0.40174178     -1.48162270     -0.22912233
H      -2.41488607     -1.04104922      0.59141262
H      -2.23972753      1.36658844      0.51101987
H      -0.39755915      1.86741404     -1.31522866
H       0.02736445      2.33457298      0.31241183
H       2.55974136      0.02158776      0.97302384
H       0.87293869      0.06393256      1.67900236
H       1.64784633     -1.29045984     -1.00121981
H      -0.67180768     -1.90245230     -1.20487039
H      -0.31089946     -2.34162288      0.44263873
