15
b3lypvtz=-193559.97091189
O       1.78704213      0.50797727      0.62221911
C       0.72139069     -0.15620938      1.27485242
C      -0.36569427      0.77350227      1.80532994
C      -1.02525543      0.93833708      0.38993652
C      -2.41861642      0.55789325      0.91902938
C      -1.45257680     -0.35143214      1.69801392
C      -0.51910384     -0.54654114      0.45440453
H       2.36183965     -0.14935424      0.21895864
H       1.09320415     -0.91297041      1.97554613
H      -0.29832292      1.53523893      2.58001839
H      -0.74919702      1.67482122     -0.35912725
H      -3.09496104      0.06718380      0.21632373
H      -2.94996533      1.31750047      1.49579582
H      -1.66941553     -1.10109998      2.45716893
H      -0.63436803     -1.30194701     -0.32237020
