13
b3lypvtz=-213746.79484495
C      -1.06073365      0.60564687      0.61634708
C       0.11075008     -0.32998315      0.43059945
C       1.48950714      0.16877198      0.26399716
O       0.74206629     -0.31353153     -0.85520288
C       2.62349846     -0.62565691      0.67977543
N       3.53159908     -1.23887783      1.03098756
N      -2.29081177      0.17834900     -0.04018538
H      -1.25582108      0.71870214      1.68578580
H      -0.78947229      1.59208034      0.23386678
H      -0.00423067     -1.33095457      0.84021159
H       1.66753907      1.23919947      0.27353956
H      -2.63138351     -0.69390098      0.34632395
H      -2.13250714      0.03015516     -1.03006650
