14
b3lypvtz=-203705.17302684
C      -1.58555038     -0.01471808      0.66194963
C      -0.34012399     -0.46091740     -0.10355245
C       0.12624393      0.46236650     -1.24093867
N       1.55453132      0.77225550     -1.02966340
C       1.95516415      0.23815510      0.05137782
C       0.90060600     -0.52936232      0.78848049
O       1.00983694     -1.06886647      1.86110195
H      -1.75969167     -0.67066520      1.51462700
H      -2.46820072     -0.03817430      0.02201511
H      -1.46825435      1.00342600      1.03816967
H      -0.49982732     -1.47465842     -0.48343153
H      -0.41636060      1.41063392     -1.26004984
H       0.01974699      0.02341893     -2.23399275
H       2.97197968      0.34700626      0.41370697
