18
b3lypvtz=-181893.07961416
C      -2.75722625      0.43159613      0.14523435
C      -1.65281728     -0.06261301     -0.40373421
C      -0.34494172     -0.21558297      0.28605958
C       0.40046825     -1.57476848      0.20787986
N       1.67520119     -0.83805285      0.05072055
C       0.93663233      0.37797014     -0.37645226
C       1.48347744      1.69688090      0.12680357
H      -2.77734878      0.76444611      1.17655168
H      -3.67942184      0.51993299     -0.41399223
H      -1.68227048     -0.38516962     -1.44214126
H      -0.41584726      0.12092736      1.32143881
H       0.09762800     -2.14824176     -0.67640221
H       0.34970989     -2.22381895      1.08345435
H       2.31960108     -1.22005614     -0.63085381
H       0.79666188      0.42271271     -1.46546618
H       0.79671963      2.51428600     -0.10556762
H       1.63350262      1.65851299      1.20646810
H       2.44477028      1.92468844     -0.33965007
