16
b3lypvtz=-202051.52881755
C       1.14771034      1.59818906     -0.40772125
C       0.39514672      0.59509921      0.07145149
N       0.81966062     -0.70874436      0.26788532
C       2.20588506     -1.06637662      0.04222365
N      -0.95294984      0.80279583      0.43934420
C      -2.05134851      0.02578611      0.07886140
N      -2.11555121     -1.08747199     -0.52292352
H       2.20587261      1.48645679     -0.57625389
H       0.69728715      2.54871373     -0.64823437
H       0.38804786     -1.15707586      1.06161290
H       2.32924263     -2.13041308      0.23539271
H       2.47115934     -0.87651606     -0.99837695
H       2.90454721     -0.50978030      0.67874900
H      -1.17006230      1.75397800      0.68536103
H      -2.97856948      0.49295941      0.41321134
H      -1.19204120     -1.42475487     -0.78975709
