16
b3lypvtz=-181148.43494226
C       2.58228899      0.36065714     -0.31497718
C       1.67699858     -0.53337962      0.05996974
C       0.27522949     -0.24783746      0.51921833
C      -0.32937325      1.12757952      0.15350405
C      -1.81318178      0.80245157     -0.10021597
C      -1.75079689     -0.68829302     -0.32665503
N      -0.66759658     -1.26428016     -0.01150135
H       3.57950989      0.05722294     -0.60503977
H       2.37439931      1.42301011     -0.34281957
H       1.93604000     -1.58692997      0.07333809
H       0.26390875     -0.38351509      1.61002512
H       0.13035223      1.49845324     -0.76315457
H      -0.17979269      1.87604394      0.92951557
H      -2.24692275      1.34141226     -0.94392741
H      -2.44484483      1.01719468      0.76856674
H      -2.59012546     -1.26310208     -0.71064081
