11
b3lypvtz=-238888.28644543
C      -0.30473688      1.16415039     -0.00300556
C      -1.27157688      0.24999249     -0.00715601
N      -0.97683603     -1.10220518     -0.00400839
N       0.35829695     -1.56916230      0.00378545
C       1.23008809     -0.65964469      0.00741524
N       1.05286944      0.69624658      0.00484388
F       2.51823634     -1.01026557      0.01479758
H      -0.46713855      2.22629194     -0.00509711
H      -2.31655971      0.51821420     -0.01308598
H      -1.66682390     -1.82320121     -0.00687959
H       1.84418115      1.30958335      0.00839049
