14
b3lypvtz=-180298.81031364
C       1.98479029      0.23556401      0.08028695
C       0.51407969      0.05070154     -0.03376108
C      -0.60338929     -0.20567381      1.01665609
C      -1.49524753     -0.75781159     -0.10083603
C      -1.48119951      0.71106080      0.21290956
N      -0.37761872      0.99136719     -0.80407439
C      -0.35735403     -0.48852644     -1.11041202
H       2.22370339      1.03411941      0.78663378
H       2.47314203     -0.68063498      0.42016208
H       2.40104275      0.50773821     -0.89096896
H      -0.60236883     -0.44650739      2.06831715
H      -2.28611652     -1.48829182     -0.04050185
H      -2.25929106      1.40581293      0.49341545
H      -0.13417266     -0.86891807     -2.09782672
