15
b3lypvtz=-170236.54546696556
C       3.40225621     -0.06205582      0.09012616
C       1.88112905     -0.12412439      0.18261610
C       1.50148423     -1.35169482      0.57330164
C       1.73844028     -2.66744635     -0.10917691
C       2.71046844     -2.19808509      0.93651103
C       3.68792477     -1.58806964     -0.06795058
C       2.81995038     -2.32672828     -1.17487965
H       3.70061698      0.55120269     -0.76530569
H       3.91867020      0.33895931      0.96986634
H       1.24701753      0.59758655     -0.32143094
H       1.08286244     -3.52826663     -0.12816064
H       2.84683233     -2.53839577      1.95450147
H       4.74372605     -1.85669641     -0.06467387
H       3.33111448     -3.24117845     -1.48002581
H       2.51370663     -1.76840689     -2.06081866
