16
b3lypvtz=-204462.3832873
C       2.81968950     -0.21644739     -0.42804034
C       1.47763351     -0.77725271      0.02071562
C       0.45092035      0.27644621      0.38005784
O       0.67633768      1.46230914      0.31905242
C      -0.92874785     -0.22627628      0.81432344
C      -1.99886254      0.23520376     -0.14973684
N      -2.87370552     -0.47505483     -0.72310116
H       3.51498708     -1.02388751     -0.65824287
H       3.26121104      0.40735267      0.34839612
H       2.70663517      0.40357384     -1.31646987
H       1.59022642     -1.43315635      0.89179083
H       1.03024752     -1.41384119     -0.75189920
H      -1.12870487      0.22472584      1.79117066
H      -0.95468859     -1.31160076      0.91985833
H      -1.98895722      1.30529105     -0.36030987
H      -2.78822369     -1.45870449     -0.45597709
