16
b3lypvtz=-181152.7564243
C      -2.68552474     -0.30526333      0.01218831
C      -1.52739930      0.64930996      0.02992188
C      -0.24006146      0.29880238     -0.02958922
C       0.97948837      1.21677013     -0.04378276
C       2.13280928      0.24508839      0.06988598
C       1.64975763     -0.99709170      0.04576718
N       0.25680548     -1.01807233     -0.10318630
H      -3.07305902     -0.51408253      1.01590513
H      -3.51850257      0.10055001     -0.56582542
H      -2.41968411     -1.26214921     -0.44273389
H      -1.75287589      1.70596770      0.10221027
H       1.02313714      1.78975486     -0.97593838
H       0.94804362      1.94641026      0.76933182
H       3.17335822      0.52033874      0.10507726
H       2.18879422     -1.93134281      0.08566694
H      -0.28213088     -1.78432053      0.26179920
