16
b3lypvtz=-204462.21170111
C       1.99389668      1.05474519      0.01323526
C       1.16638709     -0.21648619     -0.00866186
O       1.65609624     -1.33337225      0.06300694
N      -0.17334924     -0.03726205     -0.11714272
C      -1.23907106     -1.03401889     -0.00967164
C      -2.26411787      0.13390469      0.02489531
C      -1.06650514      1.12202105     -0.01541620
H       1.84413041      1.59116174      0.95311471
H       1.71869385      1.72939339     -0.79906742
H       3.04265379      0.78658258     -0.07467638
H      -1.17687242     -1.63471048      0.89946019
H      -1.30408692     -1.70522120     -0.86665516
H      -2.87023901      0.18771485      0.92515482
H      -2.91200528      0.18652120     -0.84616328
H      -1.03469304      1.79180287     -0.87736107
H      -0.92680908      1.71229251      0.89377048
