18
b3lypvtz=-181897.1691938
C       1.60173884     -0.04898739      0.11193127
C       0.83322085      1.26067094     -0.15161250
C      -0.67455780      1.05745674      0.06791954
C      -0.91597650     -0.04105026      1.14406872
C      -0.62810468     -1.05129981     -0.01298750
C      -1.18527901      0.02681689     -0.97248389
N       0.80375121     -1.22342907     -0.28640575
H       2.54594641     -0.05684201     -0.43565873
H       1.85784939     -0.08375023      1.17841173
H       1.22263221      2.03428574      0.51429792
H       0.99834822      1.60784693     -1.17461075
H      -1.20367757      2.00574730      0.16218215
H      -1.96119198     -0.07699832      1.45040488
H      -0.28220272     -0.06212844      2.03142838
H      -1.10761134     -2.02885735      0.00921114
H      -0.75825030      0.05445570     -1.97508163
H      -2.27409363      0.00361509     -1.02589474
H       1.15200641     -2.04501343      0.19047276
