15
b3lypvtz=-191225.07255457
N      -3.80634945     -0.41747426     -0.06725482
C      -2.72753983     -0.01414667     -0.13241359
C      -1.40574563      0.50548025     -0.23259458
C      -0.37368085      0.01548647      0.46059317
C       1.02821074      0.51665798      0.36660460
C       2.01106958     -0.55318831     -0.16792731
N       3.40819277     -0.14628434     -0.23956331
H      -1.27547874      1.34129850     -0.91073508
H      -0.54983770     -0.82250168      1.12804826
H       1.36766336      0.81926734      1.36362332
H       1.07234999      1.40269360     -0.27169999
H       1.69348884     -0.85940952     -1.16676419
H       1.94863598     -1.44442987      0.46121879
H       3.52492649      0.65454148     -0.84900519
H       3.76002845      0.11909402      0.67276192
