10
b3lypvtz=-199760.50764829584
C      -1.20485418      0.65660148     -0.04862689
C       0.12530438      0.97247093     -0.14602585
C       0.78103792     -0.28747701      0.01146687
N       2.08550324     -0.49495673     -0.00852790
N       3.19354176     -0.66467028     -0.02667858
N      -0.08879646     -1.33992809      0.19775717
C      -1.27383213     -0.76090055      0.15954293
H      -2.03728258      1.33851913     -0.11519881
H       0.59119969      1.93058521     -0.30319067
H      -2.17182163     -1.35024409      0.27948172
