13
b3lypvtz=-234657.62188973
N      -0.80160881     -1.56367777     -0.85446157
C      -1.29762543     -0.64209224     -0.13875177
N      -2.59255418     -0.46675492      0.29174897
O      -0.53372551      0.36466153      0.38027831
C       0.82879156      0.30904666      0.19751796
N       1.49650742      1.31347538      0.55631155
N       2.87908376      1.22676061      0.47543411
H      -1.49998104     -2.24166870     -1.13861810
H      -3.31061004     -0.90840289     -0.25531206
H      -2.82034829      0.44990427      0.64116616
H       1.19465569     -0.61737892     -0.23461320
H       3.20899374      0.61869408     -0.27041117
H       3.24852114      2.15753291      0.34961083
