11
b3lypvtz=-213018.25360983
C      -1.59150897      1.58134787     -0.00002777
C      -0.75883072      0.53363141     -0.00002326
C      -1.29651662     -0.79798594     -0.00004784
N      -1.74815285     -1.85743735     -0.00006762
N       0.63256318      0.64633800      0.00000314
C       1.56013827     -0.37256812      0.00001055
O       2.74964340     -0.17080475      0.00002174
H      -1.21789413      2.59576504     -0.00000862
H      -2.65829771      1.42955962     -0.00005072
H       1.02200405      1.57877542      0.00002175
H       1.10847512     -1.37460321     -0.00004235
