14
b3lypvtz=-224593.43693309
C      -3.12865199     -0.49226993      0.02266290
N      -1.67161374     -0.45616411     -0.05396263
N      -1.19498879      0.85817229     -0.03031927
C       0.06946689      0.99963082     -0.01736508
N       0.99941626     -0.03589862     -0.03816505
C       2.35696453      0.13216363      0.08162798
O       3.16378958     -0.75579327     -0.04876799
H      -3.52556783      0.02199450      0.90428345
H      -3.54202090     -0.02116134     -0.86712470
H      -3.44556498     -1.53485929      0.04034827
H      -1.26441262     -0.99999972      0.70352075
H       0.47643066      2.00246162      0.00039263
H       0.67933808     -0.95451436     -0.31807189
H       2.63423884      1.17250478      0.32203064
