16
b3lypvtz=-204447.5277849
C      -1.96449455      0.75349746     -0.22510290
N      -0.78864167      0.36120940      0.52757444
C      -0.48821184     -1.08354497      0.47490422
C       1.02599413     -1.18342784      0.73021256
C       1.47840646      0.17527230      0.27752061
C       0.43322061      1.00027943      0.18180946
O       2.81884304      0.41727045      0.16890063
H      -1.89789113      0.49211496     -1.29465346
H      -2.84499342      0.26194590      0.19123483
H      -2.11545179      1.83046773     -0.14340155
H      -0.71181963     -1.46823453     -0.53202591
H      -1.09348435     -1.63553313      1.19348616
H       1.49552438     -2.00170165      0.18335467
H       1.25578063     -1.32210613      1.79280743
H       0.43619270      2.05974379     -0.02998081
H       2.96102642      1.34274684     -0.05599066
