15
b3lypvtz=-193595.00652285
C      -0.67137663      1.50610576     -0.31235633
C       0.01924988      0.14043655     -0.53590573
C       1.47677706      0.28231488     -0.47791672
C       2.66564479      0.40908191     -0.36852786
C      -0.45916417     -0.89169962      0.47620935
C      -1.39470854     -1.79718687      0.21015809
O       0.07229752     -0.78632725      1.73031357
H      -0.46579563      1.88113483      0.68963768
H      -1.74872555      1.39464766     -0.42574768
H      -0.31116657      2.23813772     -1.03447050
H      -0.25037302     -0.22632914     -1.52811190
H       3.71957545      0.51778823     -0.29978389
H      -1.73273169     -2.48509876      0.97109913
H      -1.84380681     -1.84959817     -0.76959195
H       0.92430390     -0.33340775      1.67499477
