13
b3lypvtz=-211377.42654509
C      -2.46211715     -0.42069380     -0.00079183
C      -1.03698564     -0.00344575     -0.00015034
N      -0.62489367      1.22196544     -0.00060238
N       0.75673109      1.12093039      0.00283761
H       1.31245552      1.95436272     -0.00872795
C       1.21991600     -0.17993255      0.00033586
N       2.37863680     -0.71732701     -0.00143596
N       0.01866322     -0.88705697      0.00144509
H      -0.01754980     -1.89012994      0.00065208
H      -3.09159217      0.46554891     -0.00320969
H      -2.69709615     -1.02152469     -0.88214814
H      -2.69897894     -1.01792796      0.88250872
H       3.11775588     -0.02266480     -0.00156706
