14
b3lypvtz=-203570.66512865
C      -0.83693015      0.05363013     -1.16909454
C      -0.77560568      1.29054435     -0.29561464
O      -1.32705260      0.45698742      0.86357913
C      -0.20779009     -0.32369037      0.20186669
C       1.02908857     -1.23081852      0.25359347
N       1.78710790     -0.02265824     -0.31267430
C       0.66068528      0.88123500      0.20808418
H      -0.20373006      0.00920915     -2.05429463
H      -1.83359818     -0.34264486     -1.34051522
H      -1.24604831      2.26724714     -0.40743815
H       1.02690637     -2.12818046     -0.36616697
H       1.40092185     -1.45550286      1.25153391
H       1.83658615     -0.07486202     -1.32440294
H       0.94135896      1.31590413      1.16204400
