17
b3lypvtz=-171052.89133546
C      -1.34542233      1.69305297     -0.00001210
C      -0.89005546      0.44874218     -0.00005445
C      -1.55603895     -0.92147170     -0.00014981
C      -0.13946278     -1.58147856      0.00042502
C       0.47165847     -0.17053590      0.00011153
C       1.68556414      0.30891418     -0.75055992
C       1.68570660      0.30931530      0.75025805
H      -2.40679269      1.90699096     -0.00013548
H      -0.67476666      2.54418879      0.00013913
H      -2.15876198     -1.13262196      0.88375548
H      -2.15798560     -1.13275216     -0.88455508
H       0.08224559     -2.17558021     -0.88586759
H       0.08172364     -2.17488930      0.88730971
H       2.28074052     -0.43659377     -1.26212369
H       1.60667958      1.25717433     -1.26591629
H       1.60694301      1.25785691      1.26511935
H       2.28098489     -0.43591805      1.26210715
