14
b3lypvtz=-203669.96700942
C       0.66214952      0.83894052     -0.76547569
C       0.45856985     -0.69899400     -0.64853112
C       0.93311892     -0.44554733      0.81135811
N       0.24436185      0.90291814      0.69333428
C      -1.17524646      0.46328921      0.57965164
C      -1.04049272     -0.71758420     -0.40577311
O      -1.88771422     -1.44341926     -0.85102315
H       0.03747615      1.40706094     -1.45479928
H       1.70558882      1.12944716     -0.87128065
H       0.86654361     -1.44353473     -1.32528714
H       2.00971018     -0.31234845      0.89822050
H       0.56373783     -1.08908038      1.60989187
H      -1.80631667      1.25918668      0.18427214
H      -1.57148663      0.14966568      1.54544159
