15
b3lypvtz=-214507.32557807
C       2.08890327      0.73330557     -0.03077417
O       1.12630576     -0.10591236      0.58514284
C       0.06431180     -0.47658674     -0.24732697
C      -0.90955667     -1.48141090      0.41569486
N      -1.99885270     -0.56636008      0.04901158
C      -1.16908807      0.46911496     -0.33116043
N      -1.45003872      1.67828095     -0.56855858
H       1.68190470      1.72134928     -0.26473388
H       2.47569145      0.28196067     -0.95210168
H       2.90545611      0.85086319      0.67853752
H       0.42376417     -0.79415612     -1.23278034
H      -0.97730125     -2.47266126     -0.03263025
H      -0.72024244     -1.56156399      1.48748281
H      -2.91032804     -0.47797391      0.47105959
H      -0.63092935      2.20175077     -0.86011655
