15
b3lypvtz=-271148.09785845
O      -2.73270139     -0.37568822     -0.13098204
C      -1.34302187     -0.42892983     -0.42929001
C      -0.54793251      0.64969333      0.30305813
C       0.93268823      0.71956992     -0.08641462
C       1.75127377     -0.47505029      0.34379853
F       1.70702963     -0.61901954      1.70825360
F       3.06423871     -0.28164890      0.00483838
H      -2.85491710     -0.58110469      0.80112466
H      -1.27099429     -0.27829949     -1.50828757
H      -0.94252003     -1.42698628     -0.21383575
H      -0.62994994      0.49429004      1.38231707
H      -1.01392121      1.61304421      0.08872416
H       1.04182169      0.81920740     -1.16925902
H       1.39856082      1.59744495      0.36542072
H       1.44024549     -1.42652263     -0.09146625
