14
b3lypvtz=-226997.43925039
C      -1.20265941     -0.42714028      0.39138488
C      -1.25319665      0.94030399     -0.30284444
O       0.09625074      1.42581033     -0.31018405
C       0.95445661      0.31426754     -0.50739809
C       0.23255587     -0.84984174      0.18506161
N       0.74073463     -1.93786657      0.57230948
O       2.23322999      0.57221613     -0.02831607
H      -1.40281349     -0.34178453      1.46074266
H      -1.90322996     -1.15387371     -0.01790288
H      -1.61986635      0.84897972     -1.33149730
H      -1.86132393      1.67795979      0.21520217
H       1.08155009      0.10810523     -1.57844876
H       1.73731665     -1.96383660      0.34109735
H       2.16699523      0.78670071      0.91079343
