16
b3lypvtz=-204450.41840101
N       2.80066227     -0.85450218     -0.14603164
C       2.39149536      0.53472262     -0.33829042
C       0.96383264      0.78903535      0.05523829
C       0.08204935     -0.13660158      0.41443231
C      -1.34183713      0.15740946      0.79685134
C      -2.33019383     -0.47759907     -0.15904025
O      -3.26273871      0.09661414     -0.65690482
H       2.89394287     -1.06254387      0.84151156
H       3.70445549     -1.01977670     -0.56988371
H       3.02557089      1.26086811      0.19427424
H       2.50463396      0.77471617     -1.40130891
H       0.66378859      1.83359603      0.03881989
H       0.38900583     -1.17708086      0.41240367
H      -1.54456046      1.22717193      0.84376728
H      -1.55404819     -0.27082374      1.78652786
H      -2.14103893     -1.54901181     -0.38342468
