14
b3lypvtz=-222154.6016151
C      -2.33335056     -0.07764835      0.76276566
C      -1.32557508     -0.01270659     -0.12431312
N      -1.42608472      0.49976735     -1.40915805
N      -0.07865826     -0.56459119      0.16887986
N       1.02334983     -0.17961733     -0.51641973
N       2.08380871     -0.54489591      0.02014103
N       3.19439978     -0.26663240     -0.74823363
H      -3.31882444      0.27508504      0.50254809
H      -2.19262649     -0.52611213      1.73384212
H      -0.54977901      0.79996305     -1.80606474
H      -2.16957763      1.16746290     -1.52572794
H       0.07184504     -0.96589649      1.08517093
H       3.98056605     -0.09514007     -0.13894822
H       3.04050678      0.49096212     -1.40854722
