11
b3lypvtz=-264612.45211848
C       1.41793313      0.55098175      0.04226366
N       2.63745052      0.17901237      0.08530178
C       0.24905304     -0.28895728      0.01100202
C      -1.04327979      0.09056068     -0.03526468
O      -1.42013408      1.37536205     -0.05947915
O      -2.07681877     -0.77166013     -0.06175704
F       0.44850111     -1.65021682      0.02972407
H       1.20111060      1.61874076      0.02622947
H       2.70111327     -0.84056340      0.09575108
H      -2.38410156      1.41129242     -0.09183574
H      -1.73082746     -1.67455240     -0.04193545
