19
b3lypvtz=-192743.52819359
C      -2.42923438     -0.16318575     -0.66377163
C      -1.44970398     -0.94359803      0.21203683
C      -0.47530604     -0.04973102      1.00347166
C       0.47815579      0.74167869      0.13658671
N       0.47556667      2.00559788      0.00386594
C       1.50615515     -0.03977020     -0.66522965
N       2.14653456     -1.10627667      0.11780607
H      -3.10492949     -0.83658417     -1.19310425
H      -1.90962420      0.44167451     -1.40870123
H      -3.04009791      0.51252627     -0.06082018
H      -2.00672434     -1.55425982      0.92659378
H      -0.88676921     -1.64718811     -0.40808761
H      -1.04549468      0.64555620      1.62483133
H       0.11856791     -0.67374335      1.67552456
H      -0.27128514      2.42727504      0.55859590
H       1.01765315     -0.40863813     -1.57904023
H       2.26235292      0.67520573     -0.98190335
H       1.61609716     -1.96754628      0.07267763
H       3.06152807     -1.31205380     -0.26109631
