15
b3lypvtz=-216912.75224775
C      -1.73131189      0.44862140     -0.07899439
C      -0.70356229     -0.51869830      0.46285894
O      -0.32755769     -1.52526781     -0.50457264
C       1.08255262     -1.22655165     -0.36214517
C       0.79284833     -0.07584553      0.60657108
C       1.12650662      1.31674163      0.15397266
O       1.70215533      1.59347093     -0.86737406
H      -1.99407369      1.20102395      0.66820049
H      -1.37107918      0.95054352     -0.97754192
H      -2.63826521     -0.09978138     -0.33795613
H      -1.07545224     -0.99089312      1.37755895
H       1.63388238     -2.06598657      0.06662613
H       1.53506572     -0.92619246     -1.30715024
H       1.17260490     -0.20095824      1.62237441
H       0.79568629      2.11967363      0.84547187
