16
b3lypvtz=-204413.54613258
C      -2.27313287      0.17812346     -0.15369662
N      -0.87660280      0.20904856      0.21965612
C      -0.07069302     -1.01695963      0.00949297
C       1.05975524     -0.11937794     -0.48137681
C       2.47596644     -0.09907002     -0.14322549
O       2.01485919     -0.47354078     -1.45815326
C       0.04954279      1.01505395     -0.61051753
H      -2.71336891      1.16760777     -0.01945555
H      -2.43350331     -0.13053271     -1.20097253
H      -2.81298351     -0.51631996      0.49223076
H      -0.44556436     -1.65731649     -0.80145507
H       0.09147970     -1.62091788      0.90409570
H       3.00561685      0.84718424     -0.09398264
H       2.90348594     -0.90744212      0.44162521
H       0.30564590      1.99284989     -0.19851678
H      -0.28060330      1.13170965     -1.65244846
