17
b3lypvtz=-191964.20683988
C       2.45051396     -0.41748874      0.36987699
N       1.36621889     -0.58789780     -0.25526189
C       0.33046612      0.36422416     -0.12407909
C       0.55829521      1.67271749     -0.35652627
N      -0.89473024     -0.19192050      0.22128200
C      -2.02750852      0.70468203      0.31362233
C      -1.22733112     -1.53831833     -0.22907390
H       3.26328322     -1.12444450      0.21918897
H       2.61969145      0.41530224      1.05867334
H       1.55756218      2.01017998     -0.57902541
H      -0.23279654      2.40307359     -0.38724952
H      -1.78898206      1.54806742      0.96112255
H      -2.34024781      1.09983922     -0.66410729
H      -2.86808488      0.16616856      0.74942368
H      -1.62147162     -1.54469731     -1.25516695
H      -0.34801238     -2.17165717     -0.20028003
H      -1.98790384     -1.95639135      0.43129051
