15
b3lypvtz=-212085.64748606
C      -0.35998534     -0.48482321      0.60399169
C      -1.52430855      0.07482227     -0.22632273
N      -2.78188601     -0.09871513      0.50093883
C       0.92740061     -0.46304738     -0.14317296
N       1.93224629      0.20764448      0.25916880
N       3.04150823      0.05962743     -0.64821426
N       4.03800070      0.68535900     -0.30410523
H      -0.24709776      0.07715349      1.53221223
H      -0.60457761     -1.51972682      0.86277597
H      -1.59964653     -0.48310750     -1.16274293
H      -1.30121649      1.11659047     -0.49368681
H      -3.56611932      0.17793566     -0.07724424
H      -2.80261309      0.49782075      1.32046607
H       1.00114747     -1.03716171     -1.07031575
H       3.84714740      1.18962817      0.58528394
