22
b3lypvtz=-183433.88840821
C       2.01182964     -1.05124657      0.02468851
C       1.01862152     -0.20987838      0.82618470
C      -0.08208036      0.50338644      0.00636301
C       0.53965726      1.48789745     -0.99274414
C      -0.98556457      1.29140474      0.97774809
N      -0.82622200     -0.48756070     -0.79751216
C      -1.61965205     -1.48971247     -0.09768276
H       2.68733851     -1.58511021      0.69553786
H       2.62689403     -0.43667255     -0.63393696
H       1.49463512     -1.78266998     -0.59563248
H       1.55750292      0.55506880      1.39208578
H       0.53651955     -0.84276665      1.57616700
H      -0.24132426      2.04222681     -1.51981620
H       1.17226256      2.21547899     -0.48207006
H       1.13792312      0.96498120     -1.73735093
H      -1.42691299      0.64379755      1.73641624
H      -1.79851721      1.78145356      0.43666819
H      -0.41680056      2.06447559      1.49832082
H      -1.40918961      0.00222235     -1.46451157
H      -0.97069547     -2.15705351      0.47107778
H      -2.37609839     -1.09148053      0.59299619
H      -2.13582177     -2.10163390     -0.83832791
