19
b3lypvtz=-195134.3356119
C      -2.66859323      0.13418667     -0.11398279
C      -1.27963502      0.77219980     -0.05054839
C      -0.24398634     -0.17309168      0.52161629
O      -0.02624524     -1.34364642     -0.31488457
C       1.40731118     -1.18200424     -0.23785136
C       1.27218057      0.17045993      0.48803069
C       1.72858481      1.39471284     -0.29063271
H      -2.64850613     -0.76955168     -0.72340876
H      -3.39715458      0.81998882     -0.54858603
H      -3.02214984     -0.14148092      0.88214393
H      -1.30844812      1.67126554      0.57414875
H      -0.97381990      1.08736264     -1.05022053
H      -0.56327807     -0.49332133      1.52172212
H       1.86522187     -1.15034783     -1.23023315
H       1.87332813     -1.98118711      0.34623268
H       1.72122463      0.18023807      1.48130160
H       1.41456918      2.32104195      0.19407758
H       1.33623305      1.39755633     -1.30844859
H       2.81851204      1.41327563     -0.35835875
