17
b3lypvtz=-191977.15680937
C       2.29115471      1.19012820      0.32405085
C       2.21891601     -0.11110688     -0.47228079
C       1.09924619     -1.05226264     -0.01557867
N      -0.20963788     -0.49065364     -0.28531529
C      -1.05612832     -0.40246638      0.64830989
C      -2.41522736      0.16078726      0.40637690
N      -2.85842258      0.58077239     -0.70327989
H       2.45398765      0.99502348      1.38689094
H       1.37002813      1.76612950      0.22712046
H       3.11224061      1.81694661     -0.02629422
H       2.07419397      0.10733067     -1.53258541
H       3.16510333     -0.65156773     -0.38619052
H       1.22415119     -1.30606023      1.04759436
H       1.17060045     -1.98110843     -0.58914542
H      -0.83828510     -0.73406994      1.67230681
H      -3.07015550      0.20548221      1.27793207
H      -2.13071551      0.47158753     -1.41722006
