14
b3lypvtz=-203715.83817786
C      -2.47191812     -0.45568488      0.01611604
C      -1.01267268     -0.15397070     -0.01182642
C       0.02948112     -1.02950439     -0.00057904
C       1.27211078     -0.28289854      0.01047959
O       2.42410372     -0.66908833     -0.00119578
C       0.85339066      1.20547022      0.03031955
N      -0.59892388      1.15343777     -0.09499841
H      -2.95288903      0.03520874      0.86650583
H      -2.64762065     -1.52570882      0.09366266
H      -2.95587372     -0.08462955     -0.88988678
H      -0.04590525     -2.10360310     -0.01490698
H       1.16837372      1.66469707      0.96993767
H       1.32056576      1.74430599     -0.79453136
H      -1.17199442      1.88027153      0.30080943
