17
b3lypvtz=-191970.66549996
C      -3.01997590     -0.42465922      0.00601855
C      -1.56012094     -0.74711134     -0.00053118
C      -0.51472399      0.09778189     -0.00108678
C      -0.61202147      1.59804650      0.00343405
C       0.82879759     -0.47351151     -0.00693058
N       1.87730451      0.25620820      0.00004597
N       3.09800933     -0.36567189     -0.08035064
H      -3.50938751     -0.86556036      0.87992341
H      -3.22459320      0.64366085      0.01361340
H      -3.51437373     -0.85405685     -0.87077851
H      -1.33104247     -1.80984112     -0.00679921
H      -1.64129393      1.94704850      0.00529591
H      -0.10304832      2.01003655      0.87669109
H      -0.10410524      2.01373594     -0.86852096
H       0.90279310     -1.56765324     -0.02111382
H       3.81041049      0.21227242      0.33836188
H       3.12027366     -1.31438932      0.28687542
