17
b3lypvtz=-215295.1492961
C      -2.39190840     -0.76936687      0.57273527
C      -1.81520816      0.01890306     -0.60106154
N      -0.72888928      0.93027924     -0.24212224
C       0.54331604      0.42552072     -0.01064153
O       1.43925397      1.39757228      0.36723472
N       0.84859434     -0.78883325     -0.16043493
C       2.23526641     -1.20529822     -0.06423449
H      -3.20842838     -1.41125182      0.23609350
H      -2.79027827     -0.10052085      1.33973467
H      -1.62345962     -1.39714507      1.02092362
H      -1.41836660     -0.66434717     -1.34897100
H      -2.59409577      0.61795700     -1.07733265
H      -0.99891994      1.64415184      0.42021676
H       1.13214442      2.24917922      0.03481761
H       2.95320554     -0.39650982     -0.22442744
H       2.42056405     -1.99177123     -0.79752970
H       2.43180065     -1.63627706      0.92202436
