15
b3lypvtz=-193620.30998897
C      -2.72675783     -0.35110736     -0.00002869
C      -1.74152255      0.55427649     -0.00009431
C      -0.33104301      0.26202826     -0.00001928
C       0.66735838      1.15551955      0.00003606
O       1.92358262      0.64650240      0.00017789
C       1.79758910     -0.80514328     -0.00026812
C       0.28670745     -1.12190608      0.00022600
H      -3.76465947     -0.04974155     -0.00008034
H      -2.52809347     -1.41520453      0.00008026
H      -2.00354672      1.60842946     -0.00020696
H       0.61460296      2.23412686      0.00003177
H       2.31162060     -1.17519011     -0.88649960
H       2.31244118     -1.17581901      0.88521080
H      -0.01196557     -1.69790205      0.87929612
H      -0.01236867     -1.69848805     -0.87831259
