14
b3lypvtz=-203699.19560377
C       2.75448071     -0.72045780      0.00008019
C       1.53657649      0.17351667      0.00016678
O       1.62466701      1.38411936      0.00031358
C       0.21265016     -0.51445707      0.00001949
C      -0.93848831      0.16603693      0.00004278
C      -2.25136962     -0.47360428     -0.00010069
N      -3.38127691      0.11181910     -0.00005962
H       2.74361214     -1.37228693      0.87754917
H       2.74370277     -1.37196102     -0.87763293
H       3.65898604     -0.11845165      0.00023416
H       0.20604429     -1.59943707     -0.00011533
H      -0.90070249      1.25163075      0.00017868
H      -2.25324474     -1.56559069     -0.00023363
H      -3.26396854      1.12814069      0.00007637
