18
b3lypvtz=-205206.30749048
C       2.29138733     -1.03948492     -0.04074014
O       1.39813042     -0.07756341     -0.56231025
C       0.57939520      0.57535690      0.40562963
C       0.14599954      1.90165424     -0.19912928
C      -0.61385791     -0.30770391      0.82950184
C      -1.54841225     -0.64862577     -0.29982920
N      -2.80755908     -0.51068462     -0.33433355
H       1.77542288     -1.89787450      0.40451615
H       2.95266567     -0.60073695      0.71657337
H       2.89632689     -1.39621184     -0.87246581
H       1.18245751      0.77031368      1.30274573
H      -0.41528095      1.74114745     -1.11994719
H       1.01913624      2.50973056     -0.43290585
H      -0.48817090      2.45417234      0.49583032
H      -1.16508081      0.18987849      1.63200597
H      -0.22347825     -1.24166554      1.24691648
H      -1.07048399     -1.06913256     -1.18655488
H      -3.15228853     -0.10674663      0.54070466
