13
b3lypvtz=-239475.60551256
C       2.35407717     -0.59253988      0.00001360
C       1.17182580      0.33311526      0.00001386
O       1.25275780      1.54034978      0.00001970
C      -0.22559313     -0.33348925      0.00000834
O      -0.32969651     -1.53328584      0.00001413
C      -1.39564410      0.62502574      0.00000464
O      -2.59924738     -0.10240672      0.00000228
H       2.31582289     -1.24803215     -0.87196667
H       2.31580946     -1.24805170      0.87197831
H       3.27249219     -0.01181293      0.00002637
H      -1.28802855      1.27698719     -0.87692940
H      -1.28803170      1.27698671      0.87693948
H      -3.33045094      0.52129979      0.00000137
