16
b3lypvtz=-204432.74586425
C      -1.07569820      0.35138095     -1.30268400
C      -0.30913399     -0.58713073     -0.38147086
C      -1.00816248     -1.02412437      0.93878222
N       0.23541098     -0.69366079      1.67801619
C       0.76651849     -0.01824970      0.53689724
C       1.79951761      0.80560721      0.40366246
O       2.24173595      1.36595116     -0.77882438
H      -1.40856711      1.24243102     -0.76870666
H      -1.95518516     -0.14901084     -1.71413541
H      -0.46948472      0.67991331     -2.15012151
H       0.04980408     -1.45401811     -0.94235791
H      -1.30951153     -2.06873700      1.02263697
H      -1.85853956     -0.38052876      1.18275307
H       0.15128384     -0.18174036      2.54645614
H       2.40454855      1.11907165      1.24299503
H       1.74526324      0.99284536     -1.51359857
