18
b3lypvtz=-228513.79554392
C       1.97587861      1.26799672      0.14420159
C       1.45346020     -0.08172717     -0.33193484
N       2.33423963     -1.15238723      0.15464854
C       0.05269481     -0.36754408      0.20117871
O      -0.86285925      0.54532807     -0.38528950
C      -2.14890344      0.52567683      0.17053716
O      -2.88329218     -0.64299342     -0.11606163
H       1.28908642      2.06442612     -0.13833135
H       2.94963847      1.48678713     -0.29975267
H       2.09018793      1.26774562      1.23036178
H       1.37860015     -0.05580554     -1.42779607
H       3.30083164     -0.93353998     -0.05456322
H       2.12619470     -2.02791579     -0.31202406
H      -0.22710995     -1.39851579     -0.04860703
H       0.04967473     -0.26982677      1.29571907
H      -2.68432227      1.34932527     -0.29659214
H      -2.08787032      0.68046030      1.25711726
H      -2.66938887     -1.32179630      0.53024541
