18
b3lypvtz=-205215.56888398
N      -2.64249882      0.41162255     -0.02362097
C      -1.59181908     -0.57170876      0.26154854
C      -0.28341073     -0.14631946     -0.39004075
C       0.34127900      1.13874962      0.15679259
C       1.83722088      0.89229491     -0.06365225
C       1.95164802     -0.60978484      0.19692674
O       0.69291635     -1.17954028     -0.18106611
H      -3.47172489      0.20999725      0.52091762
H      -2.91993456      0.35768231     -0.99738648
H      -1.82658447     -1.59105785     -0.07029305
H      -1.44148762     -0.61340908      1.34268404
H      -0.44811189     -0.04394991     -1.47313259
H       0.11839151      1.23493865      1.22226743
H      -0.03486176      2.02937214     -0.34138211
H       2.11400796      1.12269931     -1.09448307
H       2.47475663      1.48207789      0.59457547
H       2.74076738     -1.08990086     -0.38481401
H       2.13740609     -0.81529457      1.25729498
