15
b3lypvtz=-214498.14995256608
C      -1.65703130     -0.20946614     -0.68366032
C      -0.50395031      0.71770047     -0.40191528
C      -1.19653817     -0.01532362      0.72884067
N       0.02203602     -0.76814413      1.04929784
C       0.75452013     -0.09120009     -0.06343475
N       1.90360137      0.60366519      0.46858672
O       1.18251030     -0.91421535     -1.11789042
H      -1.48037331     -1.14867599     -1.19238360
H      -2.58338139      0.28655356     -0.94623523
H      -0.51620129      1.76926153     -0.64885249
H      -1.82404678      0.37935656      1.51506315
H      -0.06098658     -1.77038773      0.91145178
H       1.70808140      0.93015980      1.40519955
H       2.15982764      1.39064190     -0.11689633
H       2.09193229     -1.15992600     -0.90717128
