16
b3lypvtz=-202067.70453714
C      -3.34154474      0.21047519      0.02226594
C      -2.03237798     -0.49690242     -0.12570474
C      -0.84065331      0.05132263      0.13001299
N       0.35435980     -0.64313995      0.01391784
C       1.48175704     -0.03136215     -0.00501756
N       1.70467649      1.33028462     -0.14774098
N       2.65759014     -0.75913958      0.10959595
H      -3.20708992      1.23529675      0.37345540
H      -3.99644933     -0.30268186      0.73349645
H      -3.88712760      0.25140375     -0.92573928
H      -2.05168502     -1.52791531     -0.46304574
H      -0.82127215      1.08589721      0.48808980
H       0.88657387      1.91465577     -0.12650342
H       2.48138006      1.70316964      0.37528158
H       3.40522071     -0.46274829     -0.50049613
H       2.48583894     -1.75227998      0.07160290
