14
b3lypvtz=-224558.41271143
C      -0.77253753     -0.33999484     -1.28044538
C      -0.16745609      0.18933883     -0.01128394
C       1.24116893     -0.01579721      0.28855302
N       1.99830371     -0.67312221     -0.50077272
O       3.30684911     -0.74348625     -0.00347586
N      -0.81636091      0.85365596      0.88287374
N      -2.12628837      1.13870206      0.65595590
H      -1.55969126     -1.07173009     -1.06999427
H      -1.22561408      0.47161673     -1.85585019
H      -0.01706080     -0.82634525     -1.89003011
H       1.61888082      0.41108462      1.21470950
H       3.76510855     -1.25192595     -0.68001951
H      -2.65017984      0.48485990      0.08413673
H      -2.59522224      1.37324370      1.51594309
