12
b3lypvtz=-202882.96578688
C      -1.12923431      0.82160392      0.10165944
C       0.35717370      1.12353641     -0.11693623
C       0.60653382     -0.03271113      0.92966679
N      -0.75040481     -0.52491735      0.67947488
C       0.37363355     -1.03039199     -0.17825830
C       0.74638345      0.04746820     -1.14825436
O       1.32921289      0.06867023     -2.19440784
H      -1.78287561      0.78820000     -0.77240943
H      -1.59114419      1.40258405      0.89738323
H       0.78978864      2.11610481     -0.16136063
H       1.18097716     -0.13508322      1.83690677
H       0.55015571     -2.09386395     -0.19886432
