13
b3lypvtz=-237100.30707875
C       2.48769422     -0.37252762      0.00014975
N       1.07433451     -0.69392433     -0.00019657
C       0.22509326      0.26151830      0.00242019
N       0.42515558      1.59870373     -0.00318560
C      -1.24261735     -0.14128498     -0.00038640
O      -2.13659852      0.66538050      0.01366677
O      -1.41415487     -1.45806454     -0.01574042
H       2.77512621      0.19462030     -0.89406754
H       2.77293040      0.22189687      0.87788206
H       3.07108165     -1.29044634      0.01653096
H       1.33972894      2.00093552      0.07915815
H      -0.38783432      2.18943677      0.05311884
H      -0.50229171     -1.82906618     -0.02016819
