9
b3lypvtz=-212256.41522854
C      -0.05775432      1.06902997      0.15417012
C       0.56802065     -0.13588454      0.08019206
O      -0.40273467     -1.10921978      0.05854914
C      -1.55935133     -0.41693770      0.12139322
N      -1.42092565      0.86600559      0.17960684
C       1.92141791     -0.52217800      0.02674739
N       3.03765716     -0.80838167     -0.01573867
H       0.38318768      2.04982267      0.18984301
H      -2.46951742     -0.99225653      0.11701184
