20
b3lypvtz=-182658.77795054
C      -2.21649872     -0.18571660      0.00000004
C      -1.14263828      0.90326973      0.00000059
C       0.32359844      0.44352111     -0.00000002
C       1.24728034      1.65514887     -0.00000011
C       0.65694707     -0.65007394      1.05748000
N       0.57607907     -1.68348692     -0.00000041
C       0.65694651     -0.65007362     -1.05748055
H      -2.14569638     -0.82801514     -0.87772846
H      -3.20894365      0.26852596      0.00000147
H      -2.14569488     -0.82801757      0.87772662
H      -1.28980100      1.54759128      0.87356264
H      -1.28980143      1.54759256     -0.87356044
H       1.07648670      2.27841039     -0.88158652
H       2.29718937      1.35751204     -0.00000021
H       1.07648686      2.27841043      0.88158631
H      -0.05467527     -0.78821952      1.87562217
H       1.65582852     -0.51506876      1.48707835
H       1.32346919     -2.36525700     -0.00000071
H       1.65582775     -0.51506829     -1.48707935
H      -0.05467621     -0.78821899     -1.87562241
