17
b3lypvtz=-171057.520887
C      -2.49978205     -1.35269930     -0.11284035
C      -1.56226727     -0.58716401      0.42735207
C      -0.71972641      0.41261071     -0.33285307
C      -1.01810782      1.85433966      0.13328850
C       0.70656190      0.09924969     -0.19501737
C       1.87401761     -0.15625923     -0.06575401
C       3.28840676     -0.47397717      0.07833896
H      -2.71740049     -1.32264913     -1.17428578
H      -3.08251460     -2.04090481      0.48516265
H      -1.36104919     -0.64686738      1.49278661
H      -0.98497182      0.33761922     -1.39229652
H      -0.79535061      1.96843274      1.19475119
H      -2.07047265      2.09045698     -0.02656342
H      -0.40789439      2.56880669     -0.41920441
H       3.78361567     -0.51213446     -0.89422283
H       3.42646203     -1.44452231      0.55949516
H       3.80309935      0.27437210      0.68450661
