17
b3lypvtz=-191979.24041065
C       2.79613632     -0.14998569      0.39908500
C       1.55102769      0.38199186     -0.32365266
C       0.44957948     -0.63659675     -0.38162754
C      -0.84072139     -0.49495105     -0.03335716
N      -1.72351483     -1.58485650      0.08678427
C      -1.46075033      0.78212366      0.39919777
N      -1.31409457      1.93957479     -0.10210132
H       3.59684950      0.59133655      0.39447579
H       3.17600066     -1.05323155     -0.08321553
H       2.56957506     -0.39762754      1.43726187
H       1.20876075      1.29324531      0.16776969
H       1.84110162      0.67258947     -1.34060029
H       0.76698846     -1.63522019     -0.67686159
H      -2.64901308     -1.41466933     -0.28095736
H      -1.35273726     -2.45307622     -0.27063444
H      -2.14897975      0.68449157      1.24251311
H      -0.68329432      1.90621564     -0.90472759
