16
b3lypvtz=-181150.80705357
C      -2.09312785     -0.61299626      0.16007568
C      -0.76768755     -0.47238107      0.09300131
C       0.20427944     -1.48330810     -0.30618008
C       1.45729842     -1.04063152     -0.15190162
C       1.50102157      0.36116227      0.38960830
C       0.01531097      0.80803738      0.42180099
N      -0.20243522      1.92611379     -0.50789935
H      -2.58083348     -1.53986930     -0.11360999
H      -2.73487443      0.19435894      0.49131606
H      -0.07416461     -2.46349496     -0.66965540
H       2.34887356     -1.61305601     -0.37017046
H       1.95467862      0.38553273      1.38491085
H       2.09247268      1.03892975     -0.23094990
H      -0.25970496      1.16809900      1.41394244
H      -1.17878633      2.20096710     -0.48878659
H      -0.02060584      1.61517825     -1.45768223
