17
b3lypvtz=-215303.15358732
C       1.50239988      1.17670006      0.74917692
C       1.11666190      0.09073321     -0.24793433
C       2.16336208     -1.00521406     -0.36291148
O      -0.09988028     -0.56317527      0.16433210
C      -1.30613949      0.01596309     -0.10694051
N      -1.57186461      1.09290090     -0.72715927
N      -2.30447969     -0.79972130      0.37621890
H       2.41397326      1.68134660      0.42468535
H       0.71514224      1.92328531      0.84680289
H       1.68440521      0.73751690      1.73138003
H       0.95368828      0.52979908     -1.23624847
H       2.31688943     -1.48894072      0.60281619
H       3.11439028     -0.58482266     -0.69211740
H       1.85109525     -1.76226838     -1.08152279
H      -0.75085501      1.56324114     -1.08453729
H      -2.05274424     -1.39590121      1.14629610
H      -3.20197548     -0.35108467      0.44435406
