15
b3lypvtz=-170265.91033755
C      -2.22302189     -1.22984615     -0.36903923
C      -1.21398427     -0.78707308      0.10274589
C       0.00001495     -0.22193680      0.70418782
C       1.21409789     -0.78696330      0.10280883
C       2.22309425     -1.22970760     -0.36908997
C      -0.00005222      1.33423907      0.66615317
C      -0.00009826      1.93286481     -0.73597215
H      -3.11021173     -1.63083566     -0.79161561
H      -0.00000494     -0.51161343      1.76128130
H       3.11036128     -1.63061402     -0.79158386
H      -0.87901828      1.67000764      1.21958106
H       0.87890858      1.67007407      1.21955063
H       0.88253686      1.62391452     -1.29689635
H      -0.88275275      1.62387586     -1.29684417
H      -0.00011948      3.02225706     -0.68258435
