13
b3lypvtz=-239448.2693048
C      -0.91728552     -1.25308186     -0.41442035
C      -0.22953197     -0.00604148     -0.02232997
O      -0.60321696     -1.00744180      0.94803195
C       1.25725094      0.16907190     -0.21451450
O       1.87611619      0.64746297      0.96761549
C      -1.08793596      1.22345838      0.03949969
O      -0.78652089      2.27873748     -0.44986531
H      -1.97528758     -1.23507882     -0.65775936
H      -0.33570427     -2.02719882     -0.90429589
H       1.69835972     -0.77837034     -0.54186794
H       1.43342337      0.92093978     -0.98278876
H       1.72086117      0.00022104      1.66428397
H      -2.05052823      1.06732158      0.56841101
