19
b3lypvtz=-195133.52099166
C       2.34817740     -1.17981964      0.19761046
C       1.92741078      0.17983729     -0.30984674
C       1.26880344      1.18672107      0.59727462
C       0.48507196      0.56637713     -0.53579145
C      -0.67140820     -0.37046423     -0.26878170
C      -1.97358209      0.37694034     -0.02746582
O      -2.99976270     -0.58717994      0.20429080
H       1.66675521     -1.56377457      0.95669029
H       3.34210876     -1.13022426      0.64813016
H       2.38821882     -1.91208449     -0.61233256
H       2.61735264      0.59999415     -1.03305410
H       1.02549058      0.85926761      1.60102266
H       1.55927510      2.22645545      0.52961123
H       0.32586780      1.21447471     -1.39144671
H      -0.81504189     -1.04765513     -1.11583072
H      -0.47351861     -0.99719644      0.60232054
H      -2.21429136      0.99760649     -0.90003534
H      -1.86307246      1.04555195      0.83472004
H      -3.82639517     -0.12494751      0.36771733
