13
b3lypvtz=-190453.09698364
C       3.06966035     -0.57928029     -0.00026608
N       1.81356802     -0.48520019      0.00030910
C       1.22228568      0.84768681      0.00013028
C      -0.27383082      0.82241727      0.00000649
C      -1.01319793     -0.28762366      0.00004791
C      -2.43599728     -0.26196946     -0.00006427
N      -3.58964843     -0.26623294     -0.00015358
H       3.52671282     -1.56595032      0.00028137
H       3.74954191      0.28184727     -0.00047965
H       1.56222254      1.41669330      0.87521220
H       1.56240116      1.41666595     -0.87489970
H      -0.76024885      1.79141442     -0.00012151
H      -0.53535617     -1.25841417      0.00018042
