15
b3lypvtz=-219516.4680018
C      -0.07844328      1.75922178      0.03417042
C       0.39417838      0.52114493      0.24503763
C      -0.46206681     -0.63052334      0.56625191
C      -1.71323366     -0.86599833      0.19328766
F      -2.42816218     -0.04334045     -0.59455594
N       1.77246618      0.24267166      0.29075911
C       2.30053272     -0.86543943     -0.50096288
H      -1.12721866      1.98513475      0.13443267
H       0.59013877      2.57571325     -0.20708251
H      -0.02242396     -1.39834437      1.19099875
H      -2.28086796     -1.73919802      0.48370668
H       2.31267820      1.08493386      0.15265423
H       1.81405734     -1.79751093     -0.21740394
H       2.16663587     -0.73268830     -1.58233694
H       3.36466105     -0.97209907     -0.29250687
