13
b3lypvtz=-213753.46911102
C      -2.54971758     -0.71120588      0.24248972
C      -1.83744915      0.33141998     -0.17105739
C      -0.35421261      0.48117435     -0.07502036
O       0.15501359      1.57706099      0.08671008
N       0.35471230     -0.69300075     -0.18488145
N       1.70172316     -0.93191642     -0.10679171
C       2.52472635      0.00380093      0.16297949
H      -3.62989598     -0.70880507      0.18260104
H      -2.09515261     -1.59062080      0.68213956
H      -2.32467661      1.22192533     -0.54829914
H      -0.15301966     -1.52303949     -0.43508629
H       3.56427221     -0.30079655      0.20506667
H       2.25528759      1.03543638      0.34174478
