13
b3lypvtz=-239466.75991312
C      -1.00591938     -1.09552072      0.15020315
C       0.44152096     -1.06231147     -0.24645627
C       1.15116153      0.05326051     -0.07977204
O       0.60824941      1.23471459      0.32154472
C      -0.82353745      1.23106711      0.19932770
O      -1.38737717      0.12207155      0.80750938
O       2.48286486      0.14902450     -0.27733685
H      -1.66535757     -1.26727040     -0.71183876
H      -1.20463980     -1.88565575      0.87643358
H       0.92173094     -1.95398989     -0.61815234
H      -1.17222217      2.11957064      0.71718503
H      -1.06343923      1.26993880     -0.87084692
H       2.71696507      1.08510051     -0.26780035
