19
b3lypvtz=-171840.61276316
C       1.51994295     -1.47395106     -0.53891660
C       1.15892590     -0.29593740     -0.02637312
C       2.17050915      0.61002662      0.63255248
C      -0.24878686      0.18742864     -0.09200117
C      -0.43750044      1.61134116     -0.55590672
C      -1.25057803     -0.62545344      0.26753238
C      -2.72340938     -0.35273179      0.26059592
H       0.81133468     -2.10869711     -1.05338466
H       2.53950512     -1.83142311     -0.46527512
H       2.30072796      1.53979714      0.07367971
H       1.85139460      0.88898548      1.64033121
H       3.14261839      0.12370777      0.70173557
H      -0.02516084      2.32177171      0.16510748
H      -1.48436159      1.86454578     -0.70228403
H       0.08473282      1.78219504     -1.50087479
H      -0.97441880     -1.61295988      0.62305344
H      -3.13996807     -0.45084234      1.26751528
H      -2.98150091      0.63733771     -0.10950652
H      -3.24571466     -1.08692491     -0.36027673
