13
b3lypvtz=-213745.59185909
C      -2.53679956     -0.35473685      0.05495422
N      -1.50999604      0.65664104     -0.12068774
C      -0.18473845      0.25295324     -0.02974506
C       0.35595497     -0.99721675     -0.01716446
O       1.70942220     -0.91630112      0.00850077
N       2.07965331      0.41580512      0.02858302
C       0.96642425      1.09603203     -0.00002688
H      -3.51651891      0.11618228      0.00042304
H      -2.47366646     -1.08561947     -0.75367223
H      -2.45839041     -0.89513921      1.00817645
H      -1.69823110      1.51244331      0.37755551
H      -0.05942795     -1.98821743     -0.03499866
H       1.00553915      2.17461181     -0.00070799
