14
b3lypvtz=-227020.54645846
C      -2.75184888     -0.35880825     -0.38957966
N      -1.41282444     -0.66128358      0.08409129
C      -0.46503948      0.29286184      0.27510661
O      -0.64370967      1.48071326      0.06596869
C       0.88618237     -0.22035037      0.76262545
C       1.99232533      0.17637364     -0.19675023
O       2.86758056     -0.57146824     -0.54528917
H      -2.82731274      0.71929944     -0.50133298
H      -3.50416447     -0.69789587      0.32433036
H      -2.94325044     -0.83008086     -1.35532736
H      -1.17051523     -1.61889246      0.26867344
H       1.08523571      0.28973187      1.71039365
H       0.92776951     -1.29624230      0.92759273
H       1.93749389      1.22019688     -0.55519982
