14
b3lypvtz=-203658.61178623
C      -2.49982259      0.54890239     -0.70556430
O      -2.18737468     -0.74202432     -0.16027063
C      -0.89069368     -0.99406034      0.06212989
N       0.03459964     -0.17432991     -0.17710750
C       1.40285970     -0.60185832      0.12166283
C       2.37884040      0.44039476     -0.18879079
C       3.20179078      1.27680589     -0.43384939
H      -2.16295373      1.33849066     -0.03481315
H      -2.01515457      0.68216472     -1.67207773
H      -3.58075448      0.56632739     -0.81021194
H      -0.77436019     -2.00032623      0.47385947
H       1.66399602     -1.49893556     -0.45141999
H       1.50647698     -0.86551302      1.18060311
H       3.92255040      2.02396187     -0.65404987
