14
b3lypvtz=-203653.76518543
C       3.42596218      0.04538726     -0.00000116
C       2.17570344      0.51027863     -0.00000346
C       1.01372714     -0.35412856     -0.00000479
N      -0.15608750      0.15886067     -0.00000476
O      -1.12652556     -0.84899229     -0.00000497
C      -2.41403084     -0.37434964     -0.00000312
C      -2.83146349      0.88278789     -0.00000022
H       4.27645620      0.71233266      0.00000231
H       3.63577388     -1.01726697     -0.00000388
H       1.97733442      1.57541816     -0.00000462
H       1.14894371     -1.43513986     -0.00000276
H      -3.08357963     -1.22383424     -0.00000447
H      -2.15288017      1.71980650      0.00000082
H      -3.89435479      1.07128880      0.00000110
