14
b3lypvtz=-201285.73527543
C      -0.66526223      1.39496253     -0.35231122
C      -1.12982063     -0.03009222     -0.65047549
C      -1.12828186     -1.00531778      0.45873240
N       0.04856198     -0.90520002     -0.44627239
C       1.00550682      0.01841389      0.09974425
N       0.69567296      1.25414268      0.17523105
N       2.17707530     -0.53871157      0.52884401
H      -1.30782807      1.91480335      0.36344928
H      -0.65215689      1.99596241     -1.26604786
H      -1.72124752     -0.22943561     -1.53408601
H      -1.00134430     -0.63582275      1.46938827
H      -1.68244643     -1.93010127      0.36687402
H       2.42982583     -1.41079682      0.09636212
H       2.93174504      0.10719318      0.69056758
