17
b3lypvtz=-191984.41826115
C      -1.44829713      1.58481170     -0.13634477
C      -1.14577114      0.29459650     -0.00690472
C      -2.21431510     -0.75671756      0.15572179
C       0.29042951     -0.13610396     -0.01935391
N       0.50225389     -1.50239504     -0.12047296
N       1.21976246      0.73165428      0.10663200
C       2.59346766      0.27918328      0.08057235
H      -2.47607760      1.92269444     -0.11707358
H      -0.66671713      2.32127524     -0.25190377
H      -3.19434391     -0.29144678      0.24481476
H      -2.04525701     -1.36999231      1.04367985
H      -2.25946314     -1.43510228     -0.70296007
H      -0.23282842     -2.07672396     -0.49248630
H       1.43045361     -1.81044507     -0.35292736
H       2.85212305     -0.25240640     -0.84865273
H       3.25884111      1.13787003      0.15589427
H       2.82655530     -0.39451811      0.91673617
