16
b3lypvtz=-204434.00156718
N       1.92976620     -0.63973594     -0.40798468
C       0.97311229     -0.04819015      0.52788251
C       0.53637625      1.36001338      0.07389760
O      -0.78117617      1.23755076     -0.48255679
C      -1.42351620      0.15097358      0.14545340
C      -1.17564277     -1.18823319     -0.47498669
C      -0.38419695     -0.74723227      0.74004936
H       2.15892859     -1.58676552     -0.12863087
H       1.53089999     -0.70054381     -1.33815780
H       1.48071553      0.01604737      1.49153588
H       0.51089877      2.04964453      0.92476241
H       1.19429298      1.76877106     -0.69127206
H      -2.36396930      0.39369504      0.62426638
H      -0.69115248     -1.19922105     -1.44234148
H      -1.90964216     -1.96954817     -0.32716434
H      -0.55455057     -1.26384762      1.67431017
