15
b3lypvtz=-214500.55871671
N      -2.77309451     -0.32718964     -0.48406589
C      -1.86086416     -0.74374768      0.28633253
C      -0.61132898     -0.01281994      0.64450581
O      -0.45438018      1.29000847      0.07083220
C       0.43418970      0.25389911     -0.35640183
C       1.88610310      0.41210721      0.01586215
N       2.57704179     -0.87463486     -0.10807535
H      -2.53581049      0.61239174     -0.81720273
H      -1.97056407     -1.72882244      0.74506983
H      -0.29592722     -0.09763310      1.68163147
H       0.24180996     -0.09668597     -1.36901714
H       2.31499772      1.21624119     -0.59906840
H       1.94327798      0.74172361      1.05415007
H       3.50429441     -0.81533342      0.29353185
H       2.70195393     -1.12222827     -1.08296256
