14
b3lypvtz=-226969.04565151752
C      -1.58842274     -0.82468796     -0.21267322
C      -0.38024544     -0.54895289      0.69525063
C       0.65916930      0.32581281      0.06475673
N       1.79680650     -0.21079929     -0.33787895
O       2.78273621      0.32552868     -0.89703043
C       0.45433986      1.76405436     -0.11287311
O      -0.56216203      2.32166706      0.25206042
H      -2.08136179      0.10647347     -0.48652729
H      -1.28663285     -1.33718618     -1.12742393
H      -2.31371818     -1.45371225      0.30464789
H      -0.72575999     -0.06066168      1.60832080
H       0.08099446     -1.49427676      0.99787845
H       1.88212698     -1.22225308     -0.15860187
H       1.28212971      2.30899371     -0.58990611
