19
b3lypvtz=-192753.83427114
C       3.19719501     -0.29918188     -0.10610854
C       1.76018117      0.01368197     -0.51934440
C       0.76692216     -0.14029742      0.64324554
C      -0.66628327      0.12962768      0.25237250
N      -0.96255686      1.45757131     -0.00629039
N      -1.47625587     -0.84732425      0.12218447
C      -2.83753695     -0.55946273     -0.28935159
H       3.53758897      0.37125043      0.68668258
H       3.28576799     -1.32169508      0.26694363
H       3.88330475     -0.19233674     -0.94778331
H       1.70511686      1.02823132     -0.92226633
H       1.45370832     -0.65414661     -1.32787052
H       0.80331140     -1.15866025      1.02680223
H       1.05863886      0.52984271      1.46042829
H      -0.36071878      2.15963378      0.38835584
H      -1.92932412      1.72539286     -0.07606510
H      -3.40741869     -1.48671887     -0.32257648
H      -3.35725408      0.11639384      0.40640695
H      -2.88629588     -0.10356107     -1.28725438
