14
b3lypvtz=-226986.21261017
C       2.54370305     -0.65987988     -0.07549019
C       1.38469166     -0.01078293     -0.07890983
O       1.26050792      1.29008253     -0.43244125
O       0.20978472     -0.65501816      0.23437853
C      -0.75806545      0.08588979      0.90926060
C      -1.99049392      0.17934930      0.40176933
N      -2.38767365     -0.29269181     -0.83604191
H       3.44167841     -0.16306904     -0.40352665
H       2.57904226     -1.68891135      0.23979955
H       0.32804969      1.54230245     -0.37189741
H      -0.47894625      0.49402089      1.87034593
H      -2.74733594      0.69418875      0.97798593
H      -1.77893196     -0.98546093     -1.24448241
H      -3.36309253     -0.52126159     -0.92650622
