15
b3lypvtz=-214532.42364152
C      -2.52798373      0.32887391      0.06329522
O      -1.49072929     -0.65729454     -0.02898053
C      -0.24303149     -0.17974588     -0.04841021
N       0.10359140      1.04520405      0.01848349
C       1.57208474      1.04110594     -0.06806539
C       1.99947937     -0.43343838      0.16047010
N       0.75602667     -1.13363453     -0.18872102
H      -3.46087491     -0.22784292      0.07023179
H      -2.42041505      0.91136204      0.97753166
H      -2.48867670      1.00358167     -0.79075545
H       1.88057994      1.38799570     -1.05926553
H       2.00822141      1.71892240      0.66552836
H       2.82668278     -0.74461495     -0.47608016
H       2.27795824     -0.60963388      1.20523576
H       0.57594462     -2.03585262      0.22462793
