18
b3lypvtz=-205210.73339637
C      -3.00397255     -0.37828723     -0.21246624
N      -1.81510805      0.11980713      0.45164808
C      -0.70866421      0.02423435     -0.14913482
C       0.57626250      0.52168714      0.45940674
C       1.18542783      1.64632542     -0.39091281
C       1.56577440     -0.62737209      0.66776470
O       1.91726574     -1.17474974     -0.60313900
H      -2.81026085     -0.79959595     -1.20810809
H      -3.46881586     -1.14478739      0.41130395
H      -3.72859040      0.43321182     -0.30706587
H      -0.62760325     -0.42344478     -1.14928639
H       0.32473742      0.91000939      1.44876563
H       2.10110534      2.02151626      0.07031026
H       1.43687752      1.29051298     -1.38969487
H       0.48826614      2.47933519     -0.48521533
H       1.10753616     -1.39159862      1.30558261
H       2.45459145     -0.24312058      1.18319965
H       2.51065766     -1.91796029     -0.46760918
