15
b3lypvtz=-214526.28822411
C       3.06915927     -0.12029702      0.09328425
N       1.66594863     -0.44306689     -0.07936863
C       0.69990638      0.51207918     -0.09149533
C      -0.65553044      0.37402083     -0.00956205
N      -1.46512058      1.55207981     -0.02109595
C      -1.32059685     -0.90855100     -0.00125806
O      -2.53330042     -1.05411650      0.03156721
H       3.35182782      0.00967021      1.14408225
H       3.29793563      0.80227247     -0.43932007
H       3.68329992     -0.91247135     -0.33336927
H       1.39700273     -1.38842097      0.13297898
H       1.08196213      1.52269303     -0.18908760
H      -1.51067495      1.97835933      0.89711187
H      -2.41361328      1.28108894     -0.25752815
H      -0.66816800     -1.80409407     -0.06807445
