16
b3lypvtz=-181123.19134054
C      -0.78615299     -1.07989270      0.86225850
C      -0.40065980     -0.37244121     -0.44823596
C       0.71029470      0.68792156     -0.23361045
C       2.01383338      0.08226177      0.21047073
N       2.69619309      0.35923734      1.23978319
C      -1.56895243      0.23591866     -1.08306729
C      -2.53036993      0.74685055     -1.58779769
H      -1.54027793     -1.84412335      0.67910305
H      -1.19617958     -0.36495665      1.57679003
H       0.08530650     -1.55485877      1.31353879
H      -0.00723345     -1.12621783     -1.13929745
H       0.87639362      1.20603800     -1.18261688
H       0.37385182      1.43371268      0.49026863
H       2.41648014     -0.68978445     -0.45300742
H       2.23839770      1.08724017      1.79418016
H      -3.38112482      1.19319424     -2.03875994
