17
b3lypvtz=-191981.67515996
C       1.81148057      1.24636173      0.25507859
N       1.33448049     -0.02155426     -0.27966804
C       2.30342877     -1.08444957     -0.04831564
C       0.01153139     -0.38232988      0.20702834
C      -1.09114251      0.45239081     -0.47086037
C      -2.42500621      0.03389009     -0.05547567
N      -3.46833717     -0.31369310      0.28328813
H       1.12224994      2.05435483      0.01238397
H       1.93994259      1.22441389      1.35067622
H       2.77363524      1.49202111     -0.19411292
H       3.25994978     -0.80794081     -0.49247437
H       1.96491173     -2.00611349     -0.52159126
H       2.47366006     -1.28899260      1.02211067
H      -0.16483939     -1.43180500     -0.02848942
H      -0.07577451     -0.28177283      1.30143929
H      -0.98051868      1.51239581     -0.23800118
H      -1.00421608      0.34935228     -1.55380535
