12
b3lypvtz=-200520.105005
C      -2.53637681     -0.34391622      0.00000525
C      -1.55896583      0.55061837     -0.00000846
N      -0.18600533      0.23639419     -0.00000835
C       0.86096248      1.10397355      0.00000855
C       1.96854943      0.30266839      0.00001730
N       1.56025354     -0.99783605     -0.00002318
N       0.26647958     -1.04065111     -0.00001957
H      -3.56234772     -0.00899699      0.00000475
H      -2.33529438     -1.40433333      0.00001790
H      -1.74275370      1.61580446     -0.00001743
H       0.72766388      2.17044717      0.00002978
H       3.01005186      0.57001657     -0.00002154
