13
b3lypvtz=-237085.63538641
C      -1.19321123      1.57391040     -0.54108366
C      -0.59065320      0.47841286     -0.07058404
N      -1.23723006     -0.80762749     -0.06835564
N       0.71396763      0.50303102      0.41652938
C       1.49648878     -0.50335528      0.28933013
O       2.75227089     -0.44222677      0.74643086
O       1.26624055     -1.68250189     -0.27493182
H      -2.21916000      1.55037523     -0.87910565
H      -0.65086630      2.50391677     -0.60369502
H      -1.35492478     -1.15901195      0.87722355
H      -2.14428125     -0.76878907     -0.51436798
H       2.86189646      0.44817476      1.10626793
H       0.29946251     -1.69430862     -0.48365803
