13
b3lypvtz=-213767.55049264
O       2.36113234     -0.42661922     -0.47963209
C       1.71037937      0.40687096      0.09186278
C       0.29719804      0.22182842      0.58860945
C      -0.73613175      1.20972029     -0.06173493
N      -1.93730781      0.40399620     -0.33194062
C      -1.60240278     -0.81072982     -0.14161718
N      -0.30226589     -1.05523985      0.23977249
H       2.13094505      1.41197352      0.31052696
H       0.32469710      0.38136564      1.67752210
H      -0.35647573      1.61269794     -1.00582031
H      -0.97024767      2.05235938      0.58620849
H      -2.27578428     -1.64507104     -0.29863683
H      -0.02754998     -1.90867942      0.69361570
