14
b3lypvtz=-227005.11609462
C      -1.70937648     -1.41765639     -0.00000016
C      -1.15711755     -0.01503556      0.00000202
N      -1.86080181      1.05652080      0.00000256
C       0.28669431      0.20381940      0.00000020
O       0.69270630      1.51139529     -0.00000655
C       1.22825368     -0.75345278      0.00000741
O       2.55483361     -0.48484829      0.00000757
H      -1.37631104     -1.96972319     -0.88018430
H      -1.37630624     -1.96972837      0.88017885
H      -2.79803059     -1.39518359      0.00000279
H      -2.85964982      0.86953848      0.00000336
H      -0.13767111      2.02563424     -0.00000623
H       1.00177356     -1.80689794      0.00001298
H       2.66183217      0.47699191      0.00000350
