18
b3lypvtz=-181900.94569642
C       3.19927075      0.57794349     -0.00265861
C       2.19062898     -0.54696945     -0.27099179
C       0.86796736     -0.30106967      0.38908555
N      -0.21198031     -0.20032781     -0.26222630
C      -1.42225241      0.03965134      0.44237549
C      -2.67609180     -0.59046295     -0.11447986
C      -2.46236325      0.88747105     -0.24930679
H       4.16431955      0.34944007     -0.45637948
H       3.36135296      0.72020718      1.06788183
H       2.84704444      1.52410225     -0.41589132
H       2.02301808     -0.67035613     -1.34107238
H       2.60037454     -1.48953680      0.10900033
H       0.88470283     -0.20029231      1.48545191
H      -1.35275973      0.12817739      1.52576401
H      -2.55178015     -1.19874181     -0.99846202
H      -3.41268230     -0.94802586      0.59136581
H      -2.19535395      1.26969279     -1.22375140
H      -3.05043459      1.55678423      0.36294602
