16
b3lypvtz=-227767.60005765
C      -1.88040053     -1.31218423      0.20057675
C      -1.23123149      0.03447368      0.01526359
O      -1.82575806      0.97753759     -0.46597786
C       0.22776811      0.20592064      0.41908796
O       0.62361218      1.54566416      0.24572278
C       1.16386584     -0.72334089     -0.39317762
N       2.57972261     -0.53746247     -0.11770184
H      -2.96202423     -1.20519719      0.16924587
H      -1.57272715     -1.78292527      1.13486703
H      -1.57386914     -1.97449849     -0.61355147
H       0.31462765     -0.06453863      1.48173338
H      -0.14104465      1.99446976     -0.15125700
H       0.90395369     -1.76773611     -0.20816984
H       0.99406841     -0.52628681     -1.45510048
H       2.81123895      0.44466490     -0.21705534
H       2.79458083     -0.79176165      0.84007008
