11
b3lypvtz=-212962.23312198
C       0.94081164      0.08262918      0.01564754
C       0.37856819     -1.12382809      0.18180275
C       0.96659594     -2.43057659      0.20690788
C       0.20159064     -3.53150707      0.38861049
O      -1.10196424     -3.54545295      0.55589158
N      -1.79422403     -2.00523098      0.52937320
N      -1.04581927     -1.11490753      0.36527086
H       0.33429291      0.97480616      0.02506535
H       2.00625406      0.17853031     -0.12978034
H       2.03190570     -2.53728436      0.07905639
H       0.64558845     -4.52457809      0.40785429
