14
b3lypvtz=-224586.08889755385
C       1.84167446      1.08337255      0.33584004
O       1.39669501      2.21215304      0.65521263
C       1.03236322     -0.00620708      0.01454975
N      -0.32908602      0.32267717      0.09487068
C      -1.38547121     -0.39294167     -0.12209541
N      -2.65731674      0.07513016     -0.00047600
N       1.35875114     -1.32649774     -0.36181320
H       2.93047486      0.89850950      0.29418132
H      -0.37695071      1.31291920      0.37915439
H      -1.24407594     -1.42211449     -0.41687283
H      -2.85171851      1.02227050      0.26946455
H      -3.43284805     -0.53054285     -0.18281444
H       1.86815747     -1.39641101     -1.23293117
H       1.84935103     -1.85231727      0.34956825
