11
b3lypvtz=-210588.43545237
N       3.37004360     -0.66115884      0.00014214
C       2.35827019     -0.10770015      0.00009661
C       1.15133451      0.64530981     -0.00002081
N       0.02026432      0.03947318      0.00002150
N      -1.09484347      0.75852553     -0.00009871
C      -2.35147543      0.13761841     -0.00007487
N      -2.61136205     -1.09469262      0.00004642
H       1.24715350      1.73205791     -0.00014278
H      -1.04974916      1.77241917     -0.00021216
H      -3.15133096      0.87583708     -0.00017959
H      -1.76034605     -1.65752149      0.00013324
