17
b3lypvtz=-194371.73210832
C       2.01335576     -0.13043197      1.00101639
C       1.22148220      0.15164168     -0.02930773
O       1.77338477      0.62157149     -1.19866310
C      -0.27093077      0.06295285     -0.03420310
C      -0.97925690      1.40910000     -0.04327659
C      -0.94041346     -1.07953119      0.67024150
C      -0.88830763     -1.06842167     -0.83692634
H       3.08585898     -0.02734905      0.92061134
H       1.59317926     -0.44827030      1.94178893
H       1.11180467      0.56567548     -1.89597917
H      -2.05826360      1.27865923     -0.13708334
H      -0.77987534      1.95339030      0.88148032
H      -0.64397303      2.03374659     -0.87375853
H      -1.89048541     -0.88063726      1.14764037
H      -0.32105228     -1.80045368      1.18314889
H      -0.22675231     -1.77883546     -1.31414901
H      -1.79975491     -0.86280704     -1.38238082
