16
b3lypvtz=-227760.29865862
N      -1.85900815      1.32232229     -0.01221050
C      -0.98832896      0.23186526      0.44586637
C      -0.03944012     -0.14496902     -0.69640884
O       0.61067579      1.01667599     -1.18679930
C       1.02644918     -1.16403365     -0.28553172
C       1.95150856     -0.67340061      0.80149599
O       2.16273286     -1.27030751      1.82856823
H      -2.26148727      1.82608310      0.76671798
H      -2.62735018      0.96844521     -0.56965674
H      -1.52880241     -0.65872441      0.78742782
H      -0.40449158      0.60447526      1.28945741
H      -0.64041382     -0.59946534     -1.49886471
H      -0.05748594      1.71798848     -1.13499438
H       0.56552394     -2.09765943      0.03895338
H       1.64088406     -1.37138996     -1.16797024
H       2.44903404      0.29199433      0.59404923
