17
b3lypvtz=-191968.9438085
C       3.29892193      0.11306957      0.07653016
N       2.19661164     -0.51421134     -0.03341814
C       0.99844051      0.17860826      0.00445520
C      -0.15446765     -0.51632179     -0.12435902
N      -1.42868160     -0.02587670     -0.18943573
C      -2.53059406     -0.90953165      0.14400956
C      -1.65833681      1.39142754     -0.00478010
H       4.23124091     -0.44210550      0.05272038
H       3.36206412      1.20097278      0.19655151
H       1.01470596      1.26028127      0.13206706
H      -0.07450242     -1.59250332     -0.21612699
H      -2.28997968     -1.92574433     -0.16449540
H      -2.75068332     -0.92213747      1.22011322
H      -3.43205306     -0.59547797     -0.38401138
H      -1.00016845      1.96432717     -0.65842621
H      -2.68941785      1.62584164     -0.26603664
H      -1.47997418      1.71600980      1.02957151
