15
b3lypvtz=-214530.04149633
C       0.04068831     -0.97058237     -0.73312391
C       0.80798256      0.24928189     -0.20877446
C      -0.22201832      0.87256570      0.73078526
O       0.03214636      1.59712239      1.65842491
C      -1.59359475      0.35075440      0.33064708
N      -1.32238258     -0.43530110     -0.87253038
N       2.05896811     -0.01816804      0.47089706
H       0.13490871     -1.78042070      0.00451941
H       0.40849388     -1.33270330     -1.69299390
H       0.89541314      0.96507545     -1.04180773
H      -2.29271305      1.16929467      0.15105186
H      -1.97369460     -0.23097972      1.18462559
H      -2.00978569     -1.15711266     -1.03418912
H       2.84799627      0.05494792     -0.15700141
H       2.18759164      0.66622547      1.20946972
