17
b3lypvtz=-217680.27909027
C       2.55683990     -0.89777890     -0.05574072
C       1.54045825     -0.04190569     -0.10341065
C       1.70501131      1.43858432      0.09148698
C       0.14628515     -0.52026944     -0.39650425
O      -0.73066082     -0.10320124      0.65727212
C      -2.07848772     -0.41178519      0.43194978
O      -2.66470889      0.34124174     -0.60538081
H       3.57255159     -0.56286206      0.11221027
H       2.40863195     -1.96215698     -0.18693952
H       1.35550218      1.98792905     -0.78793953
H       1.10520915      1.78210738      0.93603013
H       2.74596442      1.70352607      0.27164426
H      -0.20394843     -0.09546000     -1.34402749
H       0.12356311     -1.61187795     -0.48307046
H      -2.57742576     -0.23700416      1.38793594
H      -2.20015304     -1.45722668      0.13167880
H      -2.67418735      1.26582671     -0.33463184
