12
b3lypvtz=-226232.65186324
C      -1.06023807      0.97398921      0.97342733
C      -0.75435994     -0.06597190      0.20809668
O      -1.55904344     -1.16157218      0.11526720
C       0.45585746     -0.16361005     -0.70573814
O       1.04947252     -1.46284410     -0.62377739
C       1.44614978      0.89634295     -0.48138418
N       2.24549045      1.70357256     -0.30450712
H      -0.42301365      1.84303069      1.00635365
H      -1.96407273      0.96964510      1.56457144
H      -1.03622494     -1.89186790     -0.24365100
H       0.11438968     -0.09026801     -1.74225546
H       1.48559289     -1.55034637      0.23339698
