15
b3lypvtz=-214467.56894979122
C      -2.21595802     -0.24579432      0.57944721
C      -0.80445259     -0.49617537      0.20837493
N      -1.74959901      0.01262870     -0.79255370
C       0.30773642      0.45451876      0.60871666
C       1.42513764      0.47818976     -0.37844877
N       2.63899866      0.14367408     -0.04850035
O       3.67810446      0.10387200     -0.76596412
H      -2.47282892      0.64135797      1.14553773
H      -2.85564872     -1.10075561      0.76195141
H      -0.50177043     -1.53514566      0.12272568
H      -2.04928972     -0.72693483     -1.41786100
H       0.68869813      0.17610574      1.59723092
H      -0.12515396      1.45517453      0.70338353
H       1.26977529      0.76051175     -1.40980967
H       2.76625076     -0.12122752      0.93900357
