12
b3lypvtz=-226226.35374517384
C      -1.16372904     -0.94047007      0.35288008
C       0.09780166     -0.43329373     -0.17405871
C       1.14969812     -0.02169955     -0.58832574
C       2.41977130      0.45865103     -1.09074128
O       3.46123886     -0.12051670     -0.96528052
O       2.35164795      1.65149359     -1.73496303
N      -2.21234388      0.08554741      0.32788206
H      -0.96685900     -1.36932213      1.34580813
H      -1.48408422     -1.77113481     -0.28198167
H      -1.99566328      0.82370605      0.98729232
H       1.43607586      1.95886885     -1.75393602
H      -3.09355432     -0.32182994      0.61733052
