13
b3lypvtz=-211357.0051215
C      -2.46682798      0.15065636     -0.58257273
C      -1.55471193     -0.23653595      0.59137759
C      -0.10461894     -0.14221109      0.26029957
N       0.68379912     -1.12965604     -0.10494942
N       1.90693363     -0.58060571     -0.33709776
N       1.89454619      0.68571178     -0.12881094
N       0.63345304      0.98584563      0.24889285
H       0.38411097      1.93486416      0.47270520
H      -2.27919557     -0.49103363     -1.44305501
H      -2.30712300      1.18488764     -0.89126695
H      -3.51354859      0.04392565     -0.29775058
H      -1.74712354     -1.26736143      0.88600436
H      -1.77337641      0.39192661      1.45802282
