13
b3lypvtz=-239453.23922376
O      -0.72374142      1.70218018      0.52403123
C      -0.38746367      0.58999671      0.17490938
C      -1.37009853     -0.32203207     -0.53036275
O      -2.57793447      0.33636156     -0.79083853
C       0.99385721      0.09090701      0.45314920
C       1.86855336     -0.35240941     -0.64891223
O       1.25278551     -1.29538329      0.21812303
H      -0.92496569     -0.69610128     -1.45954578
H      -1.51818387     -1.20266346      0.10919145
H      -2.50624586      1.20752268     -0.37036762
H       1.45453770      0.51863490      1.33754520
H       1.49834724     -0.34045808     -1.66835034
H       2.94065249     -0.23665545     -0.53287224
