15
b3lypvtz=-219520.25361585
C      -2.57524909     -1.17937191     -0.10531919
C      -2.02351441     -0.00141634      0.20108131
C      -0.64468223      0.38776355      0.02022294
F      -0.45628805      1.75018728     -0.05374185
C       0.45335285     -0.37913824     -0.05672505
N       1.72363892      0.07726932     -0.32405495
C       2.87088274     -0.63063620      0.21738461
H      -3.60822255     -1.38596376      0.13559866
H      -2.01922244     -1.96635142     -0.59837780
H      -2.64224130      0.77335288      0.64348830
H       0.34567255     -1.44872845      0.06238181
H       1.80356454      1.08263034     -0.32390106
H       3.78130011     -0.24728385     -0.24142401
H       2.79485001     -1.69005530     -0.03146458
H       2.96622837     -0.54355889      1.30682886
