19
b3lypvtz=-195146.8604249
C       1.65847928      1.39376384      0.21144583
C       1.28801168     -0.05113795      0.01536307
C       2.46584816     -0.98258368     -0.09583010
C       0.03933009     -0.51722161     -0.05880466
C      -1.25496176      0.24249851      0.01252430
C      -2.17153237     -0.29758164      1.10996730
O      -1.93001485      0.22998290     -1.25817352
H       0.80051990      2.05966546      0.25281656
H       2.30704257      1.73162957     -0.60193527
H       2.23044736      1.52002482      1.13567514
H       3.09013503     -0.93421138      0.80160698
H       2.15491053     -2.01680463     -0.23917830
H       3.10758932     -0.69827527     -0.93530366
H      -0.08841546     -1.59026474     -0.19933953
H      -1.06917332      1.29911008      0.19867401
H      -1.70849603     -0.19620439      2.09324342
H      -2.38413535     -1.35791691      0.94792616
H      -3.11775848      0.24396071      1.10846686
H      -2.00804028     -0.68598269     -1.54693858
