14
b3lypvtz=-203671.72802063
O       2.56367606     -0.93337018      0.17300800
N       1.90842817      0.30938822      0.00277724
C       0.65248936      0.18191878      0.11270634
C      -0.13838422     -1.07961148      0.38716308
C      -1.55798975     -0.57548187      0.39711757
C      -1.63617282      0.73338513      0.17522358
C      -0.28407980      1.36815621     -0.02801668
H       3.48899997     -0.69274958      0.06616928
H       0.04848496     -1.83707140     -0.38072836
H       0.16695462     -1.53799211      1.33324747
H      -2.40475031     -1.22611849      0.56800646
H      -2.55451322      1.30301986      0.13944606
H      -0.18606142      1.84434723     -1.00802406
H      -0.06718160      2.14227968      0.71390402
