15
b3lypvtz=-214515.64602739
C       2.92506050     -0.18630159      0.19433182
N       1.75183545     -0.54175414     -0.09681309
C       0.79859640      0.47780676     -0.49387937
C      -0.50546251      0.38276490      0.33298698
N      -1.39899146      1.47572010     -0.00458688
C      -1.18190029     -0.95727713      0.11029876
O      -2.35951979     -1.07243334     -0.12584011
H       3.65393947     -0.93610532      0.49377041
H       3.26467602      0.85680056      0.15929395
H       0.54354068      0.32484439     -1.54573010
H       1.19765557      1.49585137     -0.39609281
H      -0.21048566      0.37447660      1.39422971
H      -1.37163008      2.21302003      0.68494607
H      -2.34900300      1.12479176     -0.06377151
H      -0.51799231     -1.83449996      0.18011719
