16
b3lypvtz=-227757.44724302
N      -2.45654281     -0.36789838      0.32522880
C      -1.58549287      0.52551623     -0.27853581
O      -2.30882931      1.44172689     -0.99441914
C      -0.25051171      0.55981136     -0.16135954
C       0.58413007     -0.44640275      0.57466285
C       1.94946998     -0.67509566     -0.07605673
O       2.73729132      0.51074822     -0.15294144
H      -3.28132133     -0.55923901     -0.22409756
H      -2.02598562     -1.20322704      0.68560319
H      -1.69231492      2.02992682     -1.44167785
H       0.27788265      1.39719999     -0.59979329
H       0.08108886     -1.41952118      0.62568211
H       0.75398502     -0.14882719      1.62065767
H       2.49103568     -1.46225461      0.46254427
H       1.82074589     -1.00297855     -1.10830100
H       2.90536910      0.82041486      0.74280348
