13
b3lypvtz=-211370.25285051
N      -2.31255976      0.39304831      0.28437261
C      -1.24708773     -0.54611148     -0.02382670
C       0.14387904      0.03030658     -0.00559724
N       0.45733954      1.27134062      0.25447821
N       1.83477118      1.39226971      0.16844541
C       2.30304880      0.21873886     -0.14073485
N       1.28323035     -0.68362763     -0.26427407
H       1.35747450     -1.65956770     -0.49522981
H      -2.27669262      1.16981936     -0.36629393
H      -2.14675653      0.80464779      1.19598745
H      -1.29794356     -1.37782114      0.68582286
H      -1.43965433     -0.98206373     -1.00906091
H       3.34105113     -0.03087954     -0.28408903
