14
b3lypvtz=-203712.00347374
C       2.56459257     -0.46471996      0.00003182
C       1.12070229     -0.07253253     -0.00004809
C       0.62150051      1.20230242     -0.00005890
N      -0.76346414      1.12133513      0.00016682
H      -1.40956611      1.88935698     -0.00043959
C      -1.12933757     -0.18749083      0.00004308
O      -2.46054450     -0.47132724      0.00001176
C      -0.00033935     -0.96724736     -0.00002274
H       2.82030426     -1.06231886     -0.87884494
H       3.20942747      0.41472762     -0.00013190
H       2.82030181     -1.06199122      0.87913264
H       1.12227291      2.15414769      0.00031469
H      -2.57035591     -1.42648081     -0.00087084
H       0.03092776     -2.04456701      0.00002818
