15
b3lypvtz=-212115.46874429
C      -1.13672938      1.45313013     -0.03079996
C      -1.49341632     -0.00665287      0.00208460
N      -2.67223841     -0.49656407      0.04464302
N      -0.45922759     -0.93836965     -0.02385002
C       0.91830662     -0.80313548     -0.03091910
N       1.55182226      0.29463621      0.03307169
N       2.94452396      0.22619810     -0.08275383
H      -0.53676010      1.72802418      0.83590674
H      -0.53037922      1.68827714     -0.90497383
H      -2.04944120      2.04585682     -0.04706887
H      -3.36784228      0.24228899      0.05110105
H      -0.80657538     -1.88449864     -0.01771067
H       1.42487556     -1.76954746     -0.10531531
H       3.33174972     -0.62481403      0.32208291
H       3.33269575      1.02192664      0.40391460
