13
b3lypvtz=-213752.68734089
C      -1.42019272      0.83397018      0.06966114
C      -1.88981760     -0.40712149      0.11587111
O      -1.10444470     -1.53197680      0.07187538
C       0.27047453     -1.26503205      0.04871529
C       0.78187160     -0.03732974     -0.04797710
N      -0.02658271      1.12515948     -0.00167020
N       2.13825103      0.26146804     -0.22082000
H      -2.08702338      1.68008072      0.13273006
H      -2.93757747     -0.63995902      0.22283437
H       0.86262750     -2.16095824      0.13346467
H       0.21190478      1.76452173     -0.75348331
H       2.73036865     -0.55619170     -0.23305747
H       2.47014050      0.93336890      0.46185606
