12
b3lypvtz=-202945.26502158
C       2.53608480     -0.90529835      0.00002484
C       1.43283474      0.12270165      0.00006113
O       1.64946838      1.31519802      0.00019198
C       0.03308315     -0.40958647     -0.00003637
C      -1.00998123      0.42544525      0.00002304
C      -2.36146461     -0.01099758     -0.00003583
N      -3.46556873     -0.34480001     -0.00008080
H       2.44835501     -1.55104914     -0.87755858
H       3.50443996     -0.41320081      0.00019131
H       2.44817726     -1.55130440      0.87740164
H      -0.11446504     -1.48215498     -0.00014605
H      -0.83135569      1.49521284      0.00014568
