16
b3lypvtz=-204417.17133011
C      -2.22855524     -0.32141256     -0.33007075
C      -0.80388168     -0.53019624      0.11413184
C       0.08380395      0.62214932      0.39351810
N      -0.39848957     -0.23074916      1.49673748
C       1.56224199      0.63597014      0.17977509
C       2.27242501     -0.29781544     -0.69591325
O       2.01843114      1.04567361     -1.11705699
H      -2.62277457      0.62710283      0.04117204
H      -2.87329926     -1.12288285      0.03727974
H      -2.29931220     -0.30969420     -1.41959797
H      -0.34385678     -1.43767975     -0.26121337
H      -0.37077480      1.60436593      0.29432169
H      -1.15464467      0.23183262      1.99200341
H       2.12574587      1.07616123      0.99985156
H       3.31235248     -0.53216763     -0.49157137
H       1.72058835     -1.06065784     -1.23336723
