15
b3lypvtz=-212096.76392934
C      -1.98490828     -1.01353054     -0.55659388
C      -1.06767540     -0.67949978      0.61783067
N       0.19816940     -0.06037711      0.21258534
C       1.37743272     -0.81785314      0.09658193
N       2.52766983     -0.44491663     -0.26459833
N       0.29876607      1.25016298     -0.06405219
N      -0.76730796      1.89443969      0.03360635
H      -2.90391434     -1.47250588     -0.18853942
H      -1.50600089     -1.71431465     -1.24165621
H      -2.25078680     -0.11344498     -1.10714111
H      -1.56162547      0.01033129      1.30074540
H      -0.80946123     -1.58078740      1.17319250
H       1.20704853     -1.85643142      0.37285224
H       2.53657562      0.54856837     -0.49399372
H      -0.52000580      2.86094020     -0.18758356
