20
b3lypvtz=-182672.70214732
C      -2.36463919     -1.07350918      0.17925920
C      -0.93214818     -1.14517882     -0.25589403
C       0.02754362     -0.23317654     -0.07864226
C      -0.16307281      1.08945347      0.62673529
C      -0.45596420      2.25066992     -0.33642364
C       1.41750760     -0.49598433     -0.61382809
N       2.39628789     -0.57718077      0.48146219
H      -3.03425521     -1.13147361     -0.68398324
H      -2.59986877     -0.15782406      0.71863592
H      -2.61937056     -1.91951827      0.82426426
H      -0.66369093     -2.05437383     -0.78882992
H       0.74806099      1.30503450      1.18759879
H      -0.96958314      1.02089548      1.35761233
H       0.33797356      2.36692308     -1.07615895
H      -0.53920513      3.19359467      0.20726762
H      -1.38991127      2.08822964     -0.87699869
H       1.39293774     -1.38983442     -1.24986645
H       1.72592842      0.33728072     -1.25314216
H       3.33888030     -0.62746306      0.11401575
H       2.24177827     -1.42063659      1.02180607
