15
b3lypvtz=-237832.14681742
N       2.63735075      0.28124130      0.00910872
C       1.88006034     -0.70955356     -0.15413636
O       0.52495320     -0.82098434     -0.04158771
C      -0.21238278      0.29692320      0.49548244
O      -0.18591474      1.40073198     -0.34550310
C      -1.63886291     -0.21059828      0.69054377
N      -2.27450947     -0.31124273     -0.62557100
H       2.13354130      1.14313837      0.20510838
H       2.28692959     -1.67982079     -0.42814579
H       0.25065269      0.58452535      1.44137546
H      -0.89106387      1.24002768     -0.99755982
H      -1.61630843     -1.14603900      1.25684474
H      -2.17836449      0.53251927      1.27781021
H      -1.99435284     -1.16126297     -1.09820087
H      -3.28236334     -0.31086249     -0.55433706
