17
b3lypvtz=-194378.44814769
C      -2.98262337      1.36794057     -0.69753992
C      -2.20457954      0.41298913     -0.18380562
C      -0.81043485      0.20957978     -0.53635071
C      -0.03250590     -0.75148670     -0.02375841
C       1.41369720     -0.95726919     -0.35034992
C       2.33219434     -0.56749787      0.81758918
O       2.27945320      0.81839281      1.11563213
H      -4.01649715      1.47723960     -0.40107956
H      -2.60629397      2.06993999     -1.43190773
H      -2.62074863     -0.27143357      0.54994128
H      -0.39212349      0.88723838     -1.27628408
H      -0.46062383     -1.42680857      0.71421169
H       1.69309350     -0.36707885     -1.22554807
H       1.59756463     -2.01042462     -0.58847895
H       2.08430922     -1.17013542      1.70130104
H       3.36937320     -0.77839968      0.55603752
H       1.35694543      1.05711421      1.26039012
