11
b3lypvtz=-215375.00546776
C       2.60963494      0.83206228     -0.40964960
C       1.83348601      0.02587888      0.02122521
C       0.85460350     -0.93799477      0.50578574
C      -0.56154468     -0.59910031      0.03100574
O      -1.27296970     -1.39112186     -0.52107858
C      -1.05713482      0.83689124      0.34105552
O      -2.07718111      1.26798054     -0.11342119
H       3.30470126      1.54018384     -0.78752653
H       1.08743573     -1.94811797      0.16878290
H       0.85369615     -0.94703170      1.60252901
H      -0.41641628      1.42898483      1.02297278
