17
b3lypvtz=-217695.0018054
C      -1.32504432     -0.91826966     -1.01115023
C      -0.53189634      0.19677670     -0.32453206
C      -1.02345610      0.43556182      1.10593628
C       0.98080566     -0.12232593     -0.36613227
C       1.80833644      1.04499197      0.11441234
O       2.62341772      0.94215772      0.99842440
O       1.29456041     -1.28353305      0.36210889
H      -1.01236471     -1.04836225     -2.04904560
H      -2.39193479     -0.68982454     -1.00760416
H      -1.17860195     -1.86684726     -0.49388618
H      -0.66770624      1.11860374     -0.90228026
H      -0.86596051     -0.45310735      1.71701981
H      -0.50523470      1.26819691      1.58617539
H      -2.08991886      0.66456859      1.10909918
H       1.25584701     -0.26205745     -1.42534617
H       1.63278252      2.01043788     -0.39694993
H       1.99636878     -1.03696786      0.98375058
