16
b3lypvtz=-181142.78369234
C       1.76219373     -0.31090309      0.43131775
C       1.40452971     -0.48783575     -1.01388465
C       0.36925704      0.02964161     -0.03762199
C      -0.88488734     -0.74429608      0.37166428
C      -1.99882844      0.33406980      0.27716605
N      -1.34171296      1.63331232      0.04772874
C      -0.10009576      1.43516723     -0.11898962
H       2.42363030      0.50231082      0.70071094
H       1.87090711     -1.19683714      1.04284960
H       1.26630404     -1.49325299     -1.38844932
H       1.81826947      0.20570955     -1.73417970
H      -0.79268780     -1.12171774      1.39109613
H      -1.07946801     -1.59656208     -0.27886387
H      -2.68849532      0.15176251     -0.55055584
H      -2.60523130      0.39609117      1.18181681
H       0.57631554      2.26333985     -0.32180529
