19
b3lypvtz=-192746.18352503
C      -1.34700902      1.46639557      0.21438075
C      -1.50911016      0.14426667      0.03323430
N      -2.71749411     -0.42819603     -0.40669293
N      -0.54886311     -0.83752275      0.24003170
C       0.82331112     -0.52326775      0.59812426
C       1.72025034     -0.07052043     -0.56118274
C       3.13830968      0.26499651     -0.10128489
H      -2.19889392      2.12804041      0.16905601
H      -0.38340411      1.90796379      0.40658268
H      -3.02196293     -1.19429106      0.18048669
H      -3.45374045      0.25330857     -0.51099226
H      -0.64852612     -1.61542795     -0.39565792
H       0.79748975      0.24406861      1.37395834
H       1.25693706     -1.41486269      1.05992533
H       1.75473679     -0.86712335     -1.31081561
H       1.26922837      0.79454873     -1.05051702
H       3.61441269     -0.59319941      0.37912327
H       3.13657245      1.08582903      0.61934119
H       3.76746267      0.56432854     -0.94042715
