15
b3lypvtz=-191200.62700058
C      -1.45831549     -0.40633700      0.58420834
N      -1.38276935      1.05082467      0.28659544
C      -0.20553251      0.85068161     -0.60843083
C       1.18472740      0.99021496     -0.04580975
C       1.71266580     -0.21667128      0.18304381
N       0.83600439     -1.28799632     -0.05586063
C      -0.42324364     -0.69922642     -0.52556532
H      -2.45813399     -0.82323506      0.44260322
H      -1.08435454     -0.70510755      1.56608589
H      -1.19059060      1.63104761      1.09437435
H      -0.33103477      1.36977833     -1.56266566
H       1.69086115      1.92943324      0.11502374
H       2.70636321     -0.43498044      0.54981582
H       1.21260943     -2.03652153     -0.61996960
H      -0.80915650     -1.21190482     -1.40344882
