19
b3lypvtz=-218450.610053
C      -3.09001922     -0.40744008     -0.11540016
C      -1.62691715     -0.14183828     -0.47044953
C      -0.77715974      0.18139385      0.76076069
C       0.70235254      0.41852400      0.47587852
O       0.94032903      1.53233188     -0.36490523
O       1.23251469     -0.77020644     -0.06237999
C       2.64900605     -0.78470114     -0.15720190
H      -3.17985031     -1.25669264      0.56535828
H      -3.68006589     -0.63201530     -1.00521071
H      -3.54293414      0.45741535      0.37447376
H      -1.20608352     -1.01013111     -0.98008782
H      -1.58539402      0.69117642     -1.18051203
H      -0.84792108     -0.64055362      1.47760361
H      -1.16453184      1.07512082      1.25641430
H       1.23015370      0.67105853      1.40289748
H       0.46276481      1.38976295     -1.19013737
H       3.10925096     -0.66768566      0.83105174
H       2.92927663     -1.75299383     -0.56685912
H       3.01651249      0.00802132     -0.81225251
