13
b3lypvtz=-211377.95665255
C      -2.50163357      0.36895517      0.09087796
N      -1.45686545     -0.60941571     -0.14666548
C      -0.14216829     -0.24225956     -0.04811744
N       0.26763245      1.01994775     -0.05045257
N       1.62486388      0.86636707      0.00658608
H       2.22144240      1.67415176      0.01781242
C       1.94441090     -0.43404129      0.05289601
N       0.85736658     -1.17525431      0.02175938
H      -2.47233971      0.79317996      1.10122172
H      -2.40278393      1.19124755     -0.61684177
H      -3.46876333     -0.10537729     -0.06653213
H      -1.62871123     -1.54754086      0.17416852
H       2.95839031     -0.79547423      0.10836729
