16
b3lypvtz=-181164.49686928
C       2.41121884     -1.04727064      0.00000155
C       1.78717726      0.34430747      0.00000030
C       0.28332899      0.43416904     -0.00000097
C      -0.27298707      1.82690258     -0.00000032
C      -0.49739013     -0.65785171     -0.00000180
C      -1.91925597     -0.61554663     -0.00000254
N      -3.07358735     -0.60913635      0.00000015
H       2.12259762     -1.61899333      0.88315026
H       2.12259970     -1.61899402     -0.88314741
H       3.49853932     -0.96941286      0.00000276
H       2.14890799      0.90902226      0.86698900
H       2.14890940      0.90902134     -0.86698842
H       0.08125481      2.37615512      0.87646202
H      -1.36037463      1.84116434     -0.00000579
H       0.08126395      2.37615975     -0.87645599
H      -0.06760272     -1.64999136     -0.00000281
