17
b3lypvtz=-194365.86814524
C       2.16699899     -0.76376566     -0.10301393
C       1.37307924      0.13130153      0.46752058
C      -0.04486546      0.41021056      0.05722520
C      -0.22855756      1.86464244     -0.35082353
C      -1.11674725     -0.16340103      1.03046899
C      -1.44272003     -1.13355591     -0.11273910
O      -0.50035367     -0.48662604     -0.99843641
H       1.81676863     -1.36486341     -0.93142971
H       3.18320081     -0.91243374      0.23687106
H       1.73581240      0.73573857      1.29494819
H       0.40228712      2.09334813     -1.21079552
H      -1.26740306      2.05613940     -0.62050496
H       0.04956121      2.53378704      0.46644297
H      -1.91152766      0.53855752      1.27593907
H      -0.73044935     -0.61110070      1.94294863
H      -2.45959746     -1.09216137     -0.50780362
H      -1.17103189     -2.17571232      0.07134008
