12
b3lypvtz=-202929.87909796
C       2.12489189     -1.21694329     -0.16164383
C       0.97050150     -0.89706652      0.40410965
C      -0.08244740     -0.04480564     -0.27670846
C      -1.41367141     -0.63936703     -0.15997622
N      -2.46787166     -1.08260055     -0.03273615
C      -0.08982599      1.35901260      0.36976159
O       0.31290948      2.33266234     -0.19675890
H       2.37571375     -0.90700244     -1.16836540
H       2.85984876     -1.80783252      0.36753901
H       0.73834824     -1.22311343      1.41124736
H       0.16350516      0.09374616     -1.33001511
H      -0.47050633      1.39187231      1.40777545
