13
b3lypvtz=-213768.76461679
C      -2.07029391     -1.26045000      0.24558814
N      -1.09601363     -0.78031265     -0.40330151
C      -0.62614451      0.50481540     -0.08813901
C      -1.41741196      1.58278118     -0.00048908
N       0.76441492      0.58959279      0.02521598
C       1.67198341     -0.43937976     -0.01072027
O       2.86535570     -0.26602499      0.09622856
H      -2.47189512     -2.22597819     -0.04967318
H      -2.53317205     -0.74895614      1.09371592
H      -1.00756429      2.56858646      0.16510950
H      -2.47851352      1.49651463     -0.16710743
H       1.16620688      1.50853335      0.14223751
H       1.20590110     -1.42235709     -0.15201913
