16
b3lypvtz=-204461.33593634
C      -3.17095960     -0.32170554      0.00003155
C      -1.83743709      0.42366601      0.00003452
C      -0.63895214     -0.51796429      0.00001765
C       0.70571857      0.16510461      0.00001735
O       0.85155376      1.36657361      0.00003389
C       1.93012602     -0.74058001     -0.00001875
N       3.11379228     -0.30014634     -0.00005728
H      -3.27156823     -0.95923171      0.88138068
H      -4.00935579      0.37578696      0.00004388
H      -3.27157623     -0.95921023     -0.88133222
H      -1.77371457      1.07979950      0.87017010
H      -1.77372231      1.07981977     -0.87008643
H      -0.66373566     -1.19042239      0.86756246
H      -0.66374431     -1.19040108     -0.86754352
H       1.76098959     -1.81832160     -0.00002363
H       3.08136973      0.72689773     -0.00005025
