15
b3lypvtz=-214494.66221098
C      -1.90753226     -0.61994759      0.44956770
C      -0.80514335     -0.48484141     -0.61213427
C       0.43707726      0.14887376     -0.05375227
N       1.35362045     -0.72888811      0.55019723
C       2.59278730     -0.58448738      0.34016890
N       0.69139058      1.40100580      0.01367083
O      -0.34698798      2.17770669     -0.54502424
H      -1.55930115     -1.21177686      1.29633088
H      -2.78362194     -1.11298989      0.02626996
H      -2.21077591      0.36056358      0.81553654
H      -1.16263004      0.11844046     -1.44521025
H      -0.53937398     -1.47218193     -0.99296033
H       3.29236117     -1.24009774      0.85215668
H       2.99637944      0.17492547     -0.33313541
H      -0.04814960      3.07349517     -0.36158196
