14
b3lypvtz=-203684.94984605
C       1.94611086      0.73174978     -0.64475221
N       0.78364456      1.22295803     -0.71793147
C      -0.12502998      0.13928637     -0.39783753
C      -1.38280256      0.44768776      0.35994753
C      -1.44912123      0.07243681     -1.10031261
C       0.75274408     -1.08586867     -0.12288082
O       2.09996313     -0.57767477     -0.31497733
H       2.86987680      1.26427256     -0.82399768
H      -1.71983170     -0.27646393      1.09064973
H      -1.55158733      1.48135910      0.62605408
H      -1.66216788      0.85404867     -1.81544594
H      -1.83130328     -0.90637046     -1.36076112
H       0.67396374     -1.46222132      0.89775962
H       0.59554080     -1.90519994     -0.82541425
