12
b3lypvtz=-202962.15192903
O       0.91648012     -0.03756553      0.12172532
C       2.13846678     -0.02387180     -0.00290925
C       2.92284402      1.20966818     -0.07817273
C       4.26621166      1.18919705     -0.21506752
N       4.95370128      0.00766775     -0.28972526
H       5.95275108      0.01887258     -0.39181871
C       4.29163449     -1.18899002     -0.22709820
C       2.94904282     -1.23954152     -0.09042293
H       2.39647520      2.15133369     -0.02104451
H       4.86813241      2.08527596     -0.27278562
H       4.91252055     -2.07139074     -0.29397678
H       2.44293959     -2.19275560     -0.04270381
