13
b3lypvtz=-262797.23869003
O       2.42274104     -0.70370534     -0.65492060
C       1.90609127      0.24761363     -0.12615389
O       2.57086440      1.23031744      0.50960345
O       0.60428416      0.51618979     -0.06879983
C      -0.25806932     -0.44917052     -0.70726997
C      -1.68652187     -0.05449925     -0.43530552
O      -1.98594985     -0.33591773      0.92390509
H       3.50757671      1.00290195      0.44927693
H      -0.04840882     -1.44069931     -0.30794000
H      -0.05637543     -0.45276092     -1.77926359
H      -1.81881229      1.00797164     -0.66564007
H      -2.32764126     -0.63327455     -1.11241645
H      -2.82977875      0.06493318      1.14842445
