18
b3lypvtz=-181888.4242908
C       2.20114496      0.71826630      0.18820776
N       1.36218121     -0.46337084      0.03723828
C       0.02883568     -0.32744002      0.61445725
C      -0.84182106     -1.57865414      0.30196949
C      -1.49861570     -0.80264586     -0.87745631
C      -0.91896283      0.46573318     -0.28180858
C      -1.24488482      1.74609186     -0.34419413
H       1.78140786      1.54114162     -0.39101318
H       3.19578183      0.50952585     -0.20636056
H       2.30661836      1.05990592      1.23031268
H       1.81766941     -1.26458739      0.45847344
H       0.05086055     -0.00287320      1.66609452
H      -0.29017020     -2.48310275      0.04886337
H      -1.54854920     -1.79558580      1.10137497
H      -1.04401304     -1.05819360     -1.83534498
H      -2.58275747     -0.85256021     -0.97519408
H      -0.74897380      2.48728585      0.27072575
H      -2.02575172      2.10106323     -1.00634569
