17
b3lypvtz=-191969.76679345
C       2.62052575     -0.89600418      0.22081274
C       1.30027670     -0.76139172      0.30472877
C       0.54956207      0.45981570     -0.08048292
N       0.91302965      1.32662379     -0.93990652
C      -0.77242935      0.67327354      0.63920120
N      -1.67137548     -0.46405122      0.46342412
C      -2.34308548     -0.49336294     -0.83160482
H       3.25854939     -0.09924611     -0.14447216
H       3.11451309     -1.80737216      0.52932227
H       0.69439305     -1.56272057      0.71049268
H       1.80708326      1.06834464     -1.36212109
H      -0.56472255      0.77328486      1.70865251
H      -1.18993429      1.62383648      0.28382471
H      -2.35470788     -0.47625332      1.20779647
H      -3.02650290     -1.34182453     -0.86589132
H      -1.60879926     -0.62614921     -1.62695330
H      -2.90957478      0.42255695     -1.05573836
