13
b3lypvtz=-192807.23841471
C      -1.43430230     -1.64280469     -0.08616047
C      -0.84876541     -0.61885940      0.51812042
C       0.24048789      0.19721753     -0.09561959
C       1.58567964     -0.39103396     -0.30964835
O       0.68647971     -0.21495820     -1.39845931
C       0.13401437      1.62676597      0.10505153
C       0.02249513      2.80558469      0.29536077
H      -2.21423144     -2.20799079      0.40518163
H      -1.15122414     -1.93713966     -1.08785299
H      -1.14814535     -0.30939631      1.51296484
H       1.74791930     -1.41812565      0.00021410
H       2.45364858      0.25979008     -0.31184018
H      -0.07405600      3.85095040      0.45268757
