13
b3lypvtz=-237096.24125661
C       2.14722120     -0.98321659      0.39029930
C       1.22056819     -0.14214485     -0.06580308
N       1.39657085      1.15602903     -0.51432289
O      -0.06194187     -0.65652260     -0.27338808
C      -1.16457838      0.05962000      0.08951156
N      -2.27823599     -0.65932757     -0.19106806
O      -1.15454598      1.15764650      0.59920795
H       1.89958190     -2.01293716      0.58839214
H       3.16445556     -0.65332095      0.53535878
H       0.67270900      1.78297489     -0.18485679
H       2.32205507      1.50883629     -0.32357886
H      -3.16780407     -0.21341341     -0.06736015
H      -2.21497448     -1.52265556     -0.69822584
