15
b3lypvtz=-193609.63083194
C      -1.08748955     -0.34987049     -0.65806549
C      -1.36635595     -0.42187427      0.82478347
C      -0.36150937      0.07519400      1.54823214
C       0.77237841      0.51264448      0.69190500
C       0.33195195      0.21284215     -0.73441348
C       1.43833087     -0.58244026     -0.13840224
O       0.67641330      1.01750106     -1.82619090
H      -1.79211846      0.31935414     -1.16701266
H      -1.17108745     -1.32003410     -1.15470113
H      -2.28109368     -0.83350955      1.22848536
H      -0.34662507      0.14000242      2.62814598
H       1.36003052      1.38678162      0.93753785
H       1.26958882     -1.61404530      0.14271545
H       2.42395542     -0.35583786     -0.52157496
H       0.13363024      1.81329197     -1.80144437
