13
b3lypvtz=-190472.21655725
N       3.76173053     -0.43337196     -0.00416895
C       2.69739050      0.01782945     -0.00200933
C       1.40536221      0.59599518      0.00087857
C       0.27302269     -0.14203667      0.00035158
C      -1.05646632      0.38020945      0.00703677
C      -2.14272852     -0.42578062      0.00655953
N      -3.44534584     -0.02677433     -0.04021702
H       1.36395731      1.67855956      0.00324050
H       0.37225876     -1.22329847     -0.00431541
H      -1.18799078      1.45785280      0.00858922
H      -2.00760429     -1.50156254      0.00633327
H      -3.66861310      0.94214788      0.11190440
H      -4.16511014     -0.68153272      0.20571486
