15
b3lypvtz=-191205.14658109
C      -2.04734369     -1.20747660     -0.34273260
N      -1.38507700     -0.58718012      0.53787552
C      -0.62829037      0.54668868      0.19211281
C      -1.15426702      1.60365226     -0.43123810
C       0.79523821      0.50980193      0.69860091
C       1.63101747     -0.56756377      0.04579651
N       2.73601836     -0.42744477     -0.55405449
H      -2.02604826     -0.94015519     -1.40369236
H      -2.66800340     -2.04838502     -0.04365525
H      -0.56711436      2.49235601     -0.61310163
H      -2.19581185      1.62369370     -0.72047660
H       0.75996544      0.30147182      1.77398605
H       1.26867328      1.48128590      0.55458774
H       1.22614480     -1.57923710      0.11574619
H       3.02506141      0.55416528     -0.56462669
