15
b3lypvtz=-216898.98130762
C      -2.44306886     -0.48043517     -0.00001752
C      -1.14937732     -0.76821115     -0.00004497
C      -0.03794437      0.23306841     -0.00001189
O      -0.57826787      1.53203841      0.00004254
C       1.08062901     -0.07863364     -1.03557313
O       1.94616621     -0.59018295     -0.00005672
C       1.08064294     -0.07871442      1.03550863
H      -3.18751538     -1.26515811     -0.00004490
H      -2.79120923      0.54273831      0.00003437
H      -0.81692875     -1.80133437     -0.00009664
H       0.14219059      2.16954002      0.00013917
H       0.86827693     -0.82300138     -1.80400170
H       1.48601556      0.82671589     -1.50257312
H       0.86830056     -0.82313910      1.80388483
H       1.48603698      0.82659925      1.50257405
