15
b3lypvtz=-214527.0874139
N       1.82919459      1.83998011      0.03553459
C       1.29866839      0.83239541     -0.13133515
C       0.62284638     -0.47009462     -0.29659695
O       1.56408087     -1.53354627     -0.27459527
C      -0.49664018     -0.64411352      0.73993257
C      -1.64904407      0.34592296      0.56834026
N      -2.27907889      0.18064325     -0.74506769
H       0.17533096     -0.48530636     -1.28994556
H       2.01873331     -1.53138636      0.57524040
H      -0.08137194     -0.55313325      1.74720603
H      -0.86197625     -1.66799819      0.62969996
H      -2.34167368      0.22213895      1.41057415
H      -1.26370825      1.36548759      0.62962929
H      -2.85964465     -0.64966733     -0.76470957
H      -2.88022259      0.96584364     -0.95948105
