15
b3lypvtz=-214541.19047597
N      -2.45394574     -0.59566953      0.26437050
C      -1.30500302      0.11733502     -0.05606732
O      -1.31594991      1.32036062     -0.23500564
N      -0.15598302     -0.64061457     -0.08518860
C       1.09276921     -0.08980295     -0.51838943
C       1.88158919      0.76510059      0.42816123
C       2.34726974     -0.63031499      0.10927035
H      -2.50512294     -1.57316952      0.02824445
H      -3.29811754     -0.07772139      0.08469976
H      -0.23366909     -1.64293603     -0.04796558
H       1.14096925      0.18012387     -1.56747222
H       1.44642942      0.94120076      1.40056403
H       2.42293008      1.60283842      0.01294551
H       2.23496303     -1.38180538      0.87912701
H       3.21281636     -0.76167591     -0.52446706
