14
b3lypvtz=-203612.56398642
C      -1.66570072     -0.42036931     -0.03262363
C      -0.80037377      0.84552242      0.18546693
C       0.45234542     -0.02887843      0.03856965
C      -0.52527339     -0.42152464     -1.07693438
O      -0.76864703      1.03342673     -1.28761551
C       1.88798394      0.20937738      0.13950292
N       1.20874670     -0.85573997      0.94500033
H      -1.64904661     -1.19245473      0.73611221
H      -2.65689014     -0.23032122     -0.43724702
H      -0.98491631      1.72037110      0.80491946
H      -0.38065486     -1.04521613     -1.95449899
H       2.56390009     -0.16470363     -0.61884176
H       2.22423038      1.10377045      0.65075454
H       1.09429631     -0.55326003      1.90743526
