16
b3lypvtz=-227756.37068149
C       1.39291784      1.69026660      0.04791238
C       0.64825713      0.40114928     -0.28781938
C       1.35522187     -0.77181974      0.38031801
O       2.21685989     -1.43359174     -0.13490969
O      -0.67994367      0.52483586      0.19017924
C      -1.59338181     -0.45072327     -0.35079059
N      -2.91733105     -0.25392246      0.13030168
H       0.88208487      2.53449968     -0.41394752
H       2.41733085      1.64709277     -0.32111251
H       1.41179402      1.85085933      1.12690036
H       0.66418620      0.23214734     -1.37161105
H       1.02127858     -0.95663941      1.42503205
H      -1.25883636     -1.45796010     -0.07975823
H      -1.58454178     -0.36774237     -1.44302551
H      -3.26306788      0.66533598     -0.11513651
H      -2.96088371     -0.34724475      1.13723326
