15
b3lypvtz=-216940.29845783
C      -2.06979982      0.58265501      0.54302251
C      -1.09706358     -0.50171828      0.20487256
C       0.15395284     -0.34858297     -0.20850085
C       1.11849493     -1.43177793     -0.56220229
O       0.63369545      0.96269276     -0.44688750
C       1.61424006      1.45120244      0.33912853
O       2.11641768      0.90554884      1.27782215
H      -2.36956326      0.52084310      1.59254710
H      -2.98201732      0.48328088     -0.05081468
H      -1.65454351      1.57207897      0.36485368
H      -1.44370323     -1.52339643      0.30737874
H       0.64090753     -2.40562425     -0.47088720
H       1.46843859     -1.31156135     -1.59051879
H       1.99030425     -1.40755817      0.09260388
H       1.88013941      2.45211739     -0.02431785
