14
b3lypvtz=-250265.2531303
O      -2.78932989      0.13800404      0.55423020
C      -2.04840239     -0.66424205     -0.33372832
O      -0.68746436     -0.75758161     -0.00141568
C       0.03328999      0.46274730     -0.17886941
C       1.41845387      0.26482319      0.33672416
N       2.40384363      0.51344414     -0.42022243
O       3.62489949      0.31551198      0.23763820
H      -2.80132179     -0.29614378      1.41423890
H      -2.18241208     -0.20655182     -1.31840102
H      -2.40938117     -1.69478240     -0.34690363
H      -0.46041990      1.26562164      0.37912328
H       0.06914037      0.74374621     -1.23590340
H       1.55806479     -0.08127680      1.35956303
H       4.27093944      0.52007996     -0.44597388
