16
b3lypvtz=-204455.99568639
C      -0.19165111      1.35269271      0.95322695
C      -0.12865794      0.10643325      0.08856546
C       1.24805794     -0.27101482     -0.36811816
N       1.67798179     -0.51768031     -1.53328750
O       2.10865924     -0.34395446      0.67962563
C      -1.29400099     -0.20398179     -0.80872760
C      -1.06211504     -1.03757393      0.42244735
H       0.15711536      2.22923983      0.40301333
H      -1.21798055      1.54189743      1.26987573
H       0.42672158      1.24298344      1.84323648
H       0.95231394     -0.39901913     -2.23201619
H       2.97020792     -0.57421602      0.30304046
H      -2.11525243      0.49929817     -0.80808211
H      -1.11296291     -0.67041389     -1.76725879
H      -1.71960778     -0.90884756      1.27163236
H      -0.69882901     -2.04594291      0.28272659
