20
b3lypvtz=-205971.57779638
C      -3.05863935     -0.20743991     -0.19294521
C      -1.69643002     -0.75016654      0.23892882
C      -0.51378946      0.09620187     -0.23994913
N      -0.57431782      1.44445767      0.33467165
C       0.80196693     -0.53996804      0.17937314
O       1.86948396      0.22474292     -0.35758352
C       3.14159368     -0.24612038      0.02972434
H      -3.11803343     -0.10292370     -1.27919171
H      -3.86206109     -0.87650121      0.11843696
H      -3.26052997      0.76743319      0.25360669
H      -1.57521394     -1.76604786     -0.14860109
H      -1.65902119     -0.81378818      1.32981663
H      -0.52453449      0.10968296     -1.34141281
H      -1.33969181      1.97083848     -0.06801641
H       0.27777161      1.93947841      0.09747582
H       0.86814250     -0.55978988      1.27578494
H       0.85643096     -1.57316900     -0.18925394
H       3.31143841     -1.27473108     -0.31328186
H       3.26722146     -0.21964149      1.11929145
H       3.88440507      0.40489776     -0.42833074
