15
b3lypvtz=-193609.27443793
C       1.65045903     -0.51303197      0.37321889
C       0.78608063     -1.29056260     -0.27700545
C      -0.58424057     -0.81655796     -0.57472657
C      -1.44146101     -0.31529840      0.58208308
C      -0.81462172      0.65835256     -0.36630978
C       0.39922340      1.47657232      0.00740553
O       1.37658686      0.76215247      0.78172631
H       2.64058600     -0.82838584      0.67304294
H       1.08034224     -2.29486156     -0.54643992
H      -1.10319555     -1.30364544     -1.38926420
H      -1.02298432     -0.41187818      1.57452541
H      -2.51144948     -0.46167436      0.52134667
H      -1.47283602      1.16398980     -1.06336908
H       0.13627630      2.34283861      0.61441452
H       0.88133421      1.83209054     -0.91074833
