13
b3lypvtz=-216170.30855278
C      -1.52151465      1.67025963     -0.00000323
C      -0.15086936      1.10709145      0.00003736
C       0.23584819     -0.18663104      0.00007958
C      -0.66551269     -1.35825879      0.00009080
O      -1.87597009     -1.34462600      0.00006964
C       1.69206589     -0.48697794      0.00011349
O       2.57436099      0.33885294      0.00009045
H      -1.64087802      2.32349406      0.87092728
H      -1.64077392      2.32365393     -0.87082505
H      -2.29617926      0.91270857     -0.00010645
H       0.66567522      1.82571911      0.00004161
H      -0.12921684     -2.33019015      0.00012328
H       1.94219153     -1.56726578      0.00012625
