14
b3lypvtz=-227015.63373071
O       2.34635316      1.16236993     -0.47980519
C       1.29019296      0.62186074     -0.20521183
C       1.25501180     -0.82454171      0.27758992
O       0.03024517     -1.24003429      0.86201553
C      -1.08050840     -0.85375407      0.07213388
C      -1.19695278      0.66024953      0.04770675
N       0.08307344      1.23206178     -0.35165421
H       1.51440547     -1.45925059     -0.58082553
H       2.03236623     -0.94373113      1.02899787
H      -1.96496397     -1.29747401      0.52689949
H      -0.97856183     -1.24456860     -0.94936392
H      -1.49245301      1.02011634      1.03855964
H      -1.96729965      0.96360710     -0.66503866
H       0.12899141      2.20298900     -0.62200374
