18
b3lypvtz=-202818.22281067
C       2.79174252     -0.59496403     -0.28980399
N       1.43240771     -0.83706669      0.15632903
C       0.64791362      0.16234136      0.27106640
N       0.96672258      1.47477660     -0.03746924
C      -0.78873064     -0.06583865      0.67389023
C      -1.75600584     -0.06098964     -0.52924934
N      -3.15874978     -0.31593765     -0.21108273
H       3.33989528     -1.53573322     -0.30195932
H       3.33948091      0.09188825      0.37286031
H       2.83127798     -0.17432070     -1.30346727
H       0.39297637      2.20241383      0.35269178
H       1.93754346      1.71720635     -0.13886741
H      -1.10792463      0.69753633      1.39252353
H      -0.83642229     -1.03343708      1.17130828
H      -1.42540447     -0.81933542     -1.24111871
H      -1.69507886      0.89804638     -1.04803017
H      -3.50927089      0.37001943      0.44805366
H      -3.26405003     -1.22253445      0.22993597
