13
b3lypvtz=-239472.0608245
C       2.22262922      0.03001753      0.10804108
C       0.78637737     -0.39521220      0.33499488
O       0.50976941     -1.52428036     -0.48708400
C      -0.20789887      0.72113350      0.01628742
O       0.07675124      1.88112851     -0.15749071
C      -1.69938082      0.34951549     -0.04202844
O      -2.13658396     -0.72691117      0.27504843
H       2.46341220      0.91007525      0.70172422
H       2.88938610     -0.78435014      0.38664585
H       2.38322380      0.26976254     -0.94267290
H       0.63968166     -0.64754125      1.39557105
H      -0.34552793     -1.88428218     -0.22284446
H      -2.34368842      1.19046848     -0.35849942
