18
b3lypvtz=-205209.43485964
C      -1.59283209      1.58942043     -0.29577278
C      -0.77587279      0.58109669      0.02674727
C       0.48948243      0.79234795      0.81991269
C       1.75920592      0.64333515     -0.03433339
O       1.93862257     -0.66213165     -0.56160809
N      -0.97654954     -0.72656097     -0.46982214
C      -0.96154812     -1.85594163      0.46782507
H      -1.36893504      2.60374965     -0.00120305
H      -2.48767527      1.43094220     -0.88507556
H       0.54675090      0.09265905      1.65738466
H       0.47033020      1.79650399      1.24510478
H       2.63530800      0.84662722      0.58367750
H       1.73798445      1.38955191     -0.83851736
H       1.12061100     -0.88925313     -1.02622391
H      -1.80095491     -0.75728661     -1.05433112
H      -1.22792634     -2.75889304     -0.08007389
H       0.03881750     -1.99879878      0.87036840
H      -1.66523585     -1.73337544      1.29960194
