10
b3lypvtz=-223026.88114295
C      -2.69649014      0.89735225     -0.30525570
C      -1.73987582      0.19543754     -0.12931337
C      -0.61086550     -0.69683817      0.08993857
O      -0.72891306     -1.87888039      0.29288071
N       0.59981160     -0.01598945      0.03515309
N       1.77732197     -0.65749624      0.21316093
N       2.74269977      0.11908641      0.12811346
H      -3.55183790      1.50846918     -0.45952945
H       0.63197575      0.98446902     -0.14062473
H       3.57617331     -0.45561013      0.27547650
