17
b3lypvtz=-171063.78438537
C      -2.31326789     -0.24410482     -0.00000442
C      -1.00629656     -0.02537207     -0.00000244
C      -0.24718178      1.30304623      0.00000358
C       1.18715718      0.73555568      0.00000528
C       1.08269471     -0.39526847     -1.06037289
C       0.12044534     -1.02441510     -0.00000403
C       1.08268955     -0.39527649      1.06037438
H      -3.02580117      0.57166301     -0.00000248
H      -2.71868284     -1.24827581     -0.00000879
H      -0.46158778      1.90688727     -0.88384943
H      -0.46159240      1.90688215      0.88385893
H       2.00737177      1.44920334      0.00000992
H       0.67210220     -0.15061783     -2.04049408
H       2.00717570     -0.96165075     -1.16368783
H      -0.13828007     -2.07990426     -0.00000863
H       0.67209202     -0.15063350      2.04049537
H       2.00717002     -0.96165959      1.16368956
