16
b3lypvtz=-181143.01125865
C      -2.63863030      0.30465222     -0.00000689
C      -1.60251681     -0.54861338      0.00000093
N      -0.27423281     -0.23436477      0.00001521
C       0.22585321      1.12952989      0.00000584
C       1.71382321      0.92667683     -0.00000511
C       2.02686571     -0.36248739     -0.00000846
C       0.79633870     -1.22326374      0.00000090
H      -2.51308814      1.37791929     -0.00000233
H      -3.64640967     -0.07976078     -0.00001639
H      -1.79221625     -1.61687652     -0.00000270
H      -0.12107807      1.68969145     -0.88051762
H      -0.12106472      1.68969900      0.88052944
H       2.41291784      1.75013779     -0.00001072
H       3.02448195     -0.77633824     -0.00001600
H       0.75556518     -1.87704289      0.88230257
H       0.75554798     -1.87703675     -0.88230467
