14
b3lypvtz=-226999.22792222
C      -0.96988457     -1.44258420      0.93416705
C      -0.41458509     -0.26239182      0.18988075
C      -1.18434044      0.43832787     -0.65169073
O      -0.71594938      1.50949873     -1.38095049
N       0.90608491      0.06513408      0.53588326
C       1.74324891      0.49377375     -0.30663538
O       2.98752629      0.85590783      0.05843600
H      -0.42097274     -2.35427742      0.68410760
H      -0.86558244     -1.29224481      2.01093183
H      -2.02218180     -1.60565912      0.70276483
H      -2.22620898      0.17959372     -0.79391103
H      -1.45496053      2.07264345     -1.62539380
H       1.59410698      0.60959966     -1.37602093
H       3.04339887      0.73247827      1.01843104
