14
b3lypvtz=-224616.70401174
C       2.07124512     -1.15313238     -0.00023958
N       0.66687720     -0.76925179     -0.00011490
C       0.38512398      0.47807289      0.00038861
O       1.36226342      1.42455684      0.00087646
N      -0.87719533      1.04423177      0.00044143
C      -1.93414585      0.29404433     -0.00011846
N      -1.98351737     -1.04132278     -0.00058362
H       2.59871013     -0.77559149      0.88105019
H       2.59960525     -0.77227224     -0.87956327
H       2.14050811     -2.24001088     -0.00220778
H       0.90447286      2.27553478      0.00106478
H      -2.89660572      0.80025084     -0.00015023
H      -1.08137134     -1.52159228     -0.00082583
H      -2.86385247     -1.52262260     -0.00150581
