13
b3lypvtz=-213778.2429968
N       2.86470965     -0.18751306      0.00022647
C       1.84816718      0.56331982      0.00003342
C       0.42782001      0.03942803     -0.00019402
O       0.25107244     -1.18833662     -0.00029016
C      -0.62755695      1.00611676     -0.00014132
C      -1.94753965      0.63640502     -0.00012792
N      -2.37936624     -0.62750320     -0.00015467
H       2.54091935     -1.16273129      0.00015606
H       1.98387112      1.64578476      0.00007571
H      -0.38558281      2.05794160     -0.00007038
H      -2.72031376      1.39678394     -0.00005755
H      -1.67298820     -1.35706982     -0.00030140
H      -3.35834914     -0.84426293     -0.00025625
