17
b3lypvtz=-215273.85233364
N      -2.58770537      0.44218093      0.39610647
C      -1.82385898     -0.79731954      0.58442412
C      -0.40848750     -0.63366812      0.04276981
N       0.24710348      0.47890141      0.69170978
C       1.51373484      0.87370996      0.27836253
C       2.33760883      0.21329904     -0.53970443
O       3.56842640      0.76262236     -0.87717516
H      -3.44755773      0.42336118      0.92924900
H      -2.84477350      0.56114293     -0.57720210
H      -2.28202058     -1.67657438      0.11415632
H      -1.76800136     -0.99120807      1.65698372
H       0.15516999     -1.55209710      0.23233128
H      -0.44061413     -0.50751639     -1.05349134
H      -0.39720617      1.24273703      0.84307581
H       1.85646262      1.81024946      0.70165876
H       2.08332800     -0.72381499     -1.01998904
H       4.23839117      0.07389427     -0.84146555
