16
b3lypvtz=-227754.05211556
C       2.04578264      1.18529415     -0.10395428
C       1.55025383     -0.22827007      0.04932709
N       2.23957916     -1.28386293     -0.09749908
C       0.10455708     -0.40082161      0.45776492
O      -0.70870333      0.53543613     -0.24644263
C      -2.05373207      0.54301419      0.15299657
O      -2.74577000     -0.63640231     -0.17346088
H       3.11175921      1.20302550     -0.32823401
H       1.86395476      1.75826616      0.80888647
H       1.49996780      1.69144588     -0.90101454
H       3.21021135     -1.05701501     -0.31895274
H       0.01840385     -0.21577456      1.53939485
H      -0.20311373     -1.42708557      0.26211845
H      -2.13702879      0.63491886      1.24061523
H      -2.49103852      1.41816659     -0.33338814
H      -2.77756923     -0.71250940     -1.13348628
