14
b3lypvtz=-203661.25029414
O       2.40629722     -1.45181682     -0.28147012
C       1.91490562     -0.44580371      0.17020834
C       0.54077507     -0.00310212     -0.11309596
C       0.14380660      1.42739833     -0.05093334
N      -0.33492135      0.57534581      1.02452788
C      -1.47855673     -0.22769871      0.44509888
C      -0.58974556     -0.86842264     -0.64623745
H       2.47963442      0.22068304      0.85426381
H      -0.55368788      1.79763182     -0.79626177
H       0.89065639      2.14258614      0.26992358
H      -1.84275567     -0.93009720      1.19005422
H      -2.30305026      0.40199783      0.10745167
H      -0.40745781     -1.92769227     -0.48516813
H      -0.86570008     -0.71110950     -1.68826160
