17
b3lypvtz=-194363.41522953
C      -1.76567875     -1.10038308     -0.35008855
C      -0.73906253     -0.08530094      0.02340157
C      -0.78249611      1.43448181     -0.19206340
C       0.78249120      1.43448423     -0.19206185
C       0.73906190     -0.08529869      0.02340332
C       1.76568227     -1.10037789     -0.35008348
O      -0.00000149     -0.28954524      1.24542432
H      -2.65116783     -0.99972975      0.28273278
H      -2.07879252     -0.97147290     -1.38790386
H      -1.37581267     -2.11041085     -0.22408749
H      -1.27435393      1.99486061      0.60269283
H      -1.20174855      1.72235348     -1.15615058
H       1.27434577      1.99486517      0.60269488
H       1.20174439      1.72235665     -1.15614849
H       2.07881602     -0.97145159     -1.38789072
H       1.37581130     -2.11040684     -0.22410662
H       2.65115954     -0.99973717      0.28275635
