16
b3lypvtz=-204440.04506073
O       2.62341745      1.20788414      0.32237911
N       2.01076171      0.50623810     -0.74714431
C       0.83741662      0.13706766     -0.43766205
C       0.08683991      0.39501293      0.84875164
C      -1.24721428     -0.35330826      0.66700414
C      -1.45367384     -0.40049038     -0.85749966
C      -0.03556236     -0.62460819     -1.40928562
H       3.48341464      1.42899622     -0.04752017
H      -0.06353394      1.47290600      0.95890924
H       0.66132664      0.07794357      1.71936140
H      -1.15749189     -1.37061480      1.05608079
H      -2.07407568      0.12209292      1.19392575
H      -1.84006316      0.55943071     -1.20991774
H      -2.15789968     -1.17128424     -1.16954397
H       0.10745189     -0.29835509     -2.43786321
H       0.21868598     -1.68881129     -1.36567537
