18
b3lypvtz=-181891.55158466
C       2.15670024     -0.76113625     -0.06186412
C       1.33854480      0.15572744      0.43758699
C      -0.07712225      0.45269721      0.00859701
C      -0.22727750      1.93766556     -0.31239969
C      -1.11903287     -0.15017975      1.01046759
C      -1.32199092     -1.27629459     -0.02358736
N      -0.65059092     -0.43269048     -1.03859429
H       1.86504042     -1.42396511     -0.86777774
H       3.16008164     -0.88772425      0.32204730
H       1.69577086      0.78523413      1.24928620
H      -1.25867014      2.15517901     -0.58790150
H       0.04732159      2.55641029      0.54531003
H       0.41641883      2.21619412     -1.14932499
H      -1.99347174      0.48824545      1.12574336
H      -0.74402978     -0.43705456      1.99014521
H      -0.77898107     -2.18871844      0.24041485
H      -2.35091227     -1.53921199     -0.27388436
H       0.01525908     -0.89810579     -1.64243852
