14
b3lypvtz=-226995.93731274
N       2.57168096     -0.46833232     -0.55244576
C       1.95247497      0.05620071      0.57109520
C       0.66079669      0.37019334      0.73235473
C      -0.41139112      0.29105227     -0.31920117
O      -1.20766003      1.45296174     -0.35004373
C      -1.27414691     -0.92888025     -0.04303164
O      -2.45671464     -0.84359224      0.18174359
H       3.55064361     -0.25112243     -0.64506372
H       2.07717909     -0.38317839     -1.42709504
H       2.62313605      0.16996582      1.41451514
H       0.33113342      0.71544398      1.70247988
H       0.04159506      0.12817836     -1.31087434
H      -2.11654192      1.16056488     -0.17741696
H      -0.74676324     -1.89956447     -0.03270019
