17
b3lypvtz=-215287.60131722
C       1.93744172     -1.21947651      0.33049548
C       1.21275495      0.06124227     -0.00094208
N       1.71527950      1.04695499     -0.62349383
C      -0.24887322      0.14952365      0.42350114
N      -0.82098372      1.49471709      0.35706125
C      -1.13359053     -0.76726354     -0.45268346
O      -2.48639910     -0.63982111     -0.07934765
H       1.49327918     -2.06597347     -0.19780772
H       2.99049683     -1.15912411      0.05721300
H       1.86353671     -1.44077590      1.39778386
H       2.68615503      0.87344499     -0.88206757
H      -0.34085748     -0.21235567      1.45133599
H      -0.35536821      2.00054035     -0.39147512
H      -0.61804692      2.00691930      1.20620123
H      -0.85850615     -1.81542759     -0.33104318
H      -0.98112512     -0.49448805     -1.50670470
H      -2.60901746      0.31268130      0.05925738
