12
b3lypvtz=-200511.82452176
N       2.37553771      0.38798937      0.00005486
N       1.58327590     -0.56708369      0.00005448
N       0.27076965     -0.19276408      0.00003374
C      -0.73109101     -1.14852240      0.00000492
C      -1.92367475     -0.49114067     -0.00000610
C      -1.63969158      0.91445797     -0.00001301
C      -0.28497342      1.07698197      0.00001276
H       3.30799082     -0.03270241      0.00004930
H      -0.47446374     -2.19221232      0.00000900
H      -2.89746179     -0.95005242     -0.00001205
H      -2.36369028      1.71216627     -0.00003326
H       0.34023949      1.94901738      0.00002635
