16
b3lypvtz=-204352.0193244
C       0.63561182     -0.43198092      0.40408546
C       0.63917328     -0.61699700      1.91745245
C      -0.05994284      0.64388247      2.55566690
O      -1.34561071     -0.10893720      2.43975725
C      -0.45776613     -1.31167980      2.57615681
C       0.16221835     -2.66858020      2.10713139
N       1.50255292     -1.90302545      2.18928252
H      -0.26137118      0.08889503      0.07137732
H       0.71638680     -1.37256209     -0.13604346
H       1.50602957      0.17079780      0.13400619
H       0.17385428      0.83886467      3.60397638
H      -0.08820528      1.56125170      1.97030690
H      -0.28189732     -1.34442358      3.65861241
H      -0.02137732     -2.96591948      1.08025694
H       0.07728611     -3.52144524      2.77795728
H       1.80105766     -1.92414073      3.16261724
