14
b3lypvtz=-226988.24853329
N      -0.40563914     -1.67217959     -0.23194006
C      -0.38367701     -0.33442319      0.35692341
C      -1.09030048      0.81635375     -0.39312179
O      -0.23040005      1.96982224     -0.29149307
C       1.02849908      1.48473067      0.03101304
C       1.02357729      0.20638144      0.39479595
O       2.05369356     -0.57653637      0.80726868
H      -0.28702074     -1.63278218     -1.23863996
H      -1.26983354     -2.15999805     -0.03545886
H      -0.76526837     -0.44352324      1.37948668
H      -1.19547621      0.55103718     -1.45255081
H      -2.06630543      1.08505931      0.00702931
H       1.83469903      2.19670845     -0.02257858
H       1.75335201     -1.49055042      0.68916607
