14
b3lypvtz=-203704.32000929
C       0.46366655      1.66466355     -0.13785532
C       0.58538407      0.22064268      0.37843736
C       1.90642049     -0.33033476      0.07033391
N       2.94237565     -0.76088673     -0.18492902
C      -0.52043542     -0.70087437     -0.18502958
C      -1.88410406     -0.33840259      0.35414975
O      -2.87119509     -0.20281528     -0.31731425
H       1.23980737      2.29732779      0.28977705
H      -0.50725800      2.08014438      0.13287368
H       0.55623038      1.69321741     -1.22342604
H       0.50068083      0.22920606      1.47026887
H      -0.54290459     -0.67212966     -1.27401671
H      -0.31925679     -1.73250858      0.12230184
H      -1.92953039     -0.21432592      1.45889745
