15
b3lypvtz=-191212.50022029
N      -2.78635092     -0.28611787     -0.21031897
C      -1.80297003      0.43564023      0.15055685
C      -0.36815388      0.13136938      0.07236051
C       0.21975795     -1.06587623      0.10919554
C       1.71827123     -0.93235286      0.08851475
N       1.96864864      0.50312148     -0.15715345
C       0.69311992      1.21678610      0.04294194
H      -2.45865413     -1.16935343     -0.60879920
H      -2.04669843      1.41860925      0.56236113
H      -0.28887679     -2.01432068      0.22004175
H       2.14234631     -1.24768986      1.05088162
H       2.19519172     -1.55310716     -0.67492856
H       2.26978865      0.62707670     -1.11282270
H       0.52797172      1.95317641     -0.74732295
H       0.69418004      1.76969356      0.99126775
