14
b3lypvtz=-250265.72674935
C       2.30642300     -0.57094497      0.18158637
O       1.20197899      0.13934335     -0.33905540
C       0.02893363     -0.05598701      0.42518706
C      -1.07676429      0.76712207     -0.16420926
N      -2.20444173      0.37199894     -0.60130547
O      -2.36436314     -1.03138653     -0.52947207
O      -0.81777945      2.09440311     -0.18398317
H       2.12028621     -1.65208491      0.19851166
H       2.55109941     -0.24329948      1.19990379
H       3.15399014     -0.36704548     -0.46963690
H      -0.27002203     -1.10602983      0.43463161
H       0.18529034      0.27293957      1.46289101
H      -3.23599484     -1.15115265     -0.91717554
H      -1.57863625      2.53212384     -0.59150017
