14
b3lypvtz=-229599.58319361
C       2.91562107     -0.28493533      0.08421828
N       1.53875404     -0.70132522     -0.06284026
C       0.49397753      0.19772971     -0.05414536
N       0.59037938      1.47553276     -0.05462531
C      -0.83528894     -0.45112145     -0.07423638
C      -1.95192120      0.24763585      0.05448824
F      -3.15649376     -0.34485550      0.03446765
H       3.09625601      0.24953703      1.02375902
H       3.21224119      0.36747673     -0.74012453
H       3.55482089     -1.16499552      0.05920350
H       1.32233149     -1.65580801      0.16462216
H       1.55497028      1.79078923     -0.01199375
H      -0.89820375     -1.52505347     -0.19882229
H      -2.00018721      1.31956319      0.17901304
