12
b3lypvtz=-200497.88888549
C       1.87163623     -0.40375622      0.00778145
C       0.49682926     -0.45102624      0.02930545
N       0.12374888      0.82965797     -0.06469126
N       1.15009496      1.68713858     -0.14412942
N       2.21256507      0.91906707     -0.09839667
C      -1.33781333      0.58550585     -0.02957569
C      -0.94955731     -0.93718219      0.08484130
H       2.62353018     -1.16961599      0.05784168
H      -1.82722199      1.01924812      0.83954163
H      -1.84589614      0.87963111     -0.94524287
H      -1.27004337     -1.54908778     -0.75547860
H      -1.24787245     -1.40958027      1.01820299
