15
b3lypvtz=-193622.03143571
O       2.68605188     -0.61651423      0.30738866
C       1.86875031      0.35624605     -0.32484281
C       0.40075585      0.17300762     -0.08793605
C      -0.19766325     -0.69078412      0.75240570
C      -1.68752710     -0.52927410      0.65981370
C      -1.84958908      0.55871439     -0.36182024
C      -0.63710855      0.95091902     -0.78256906
H       2.42015400     -1.48324507     -0.01673199
H       2.19410651      1.32019786      0.07604640
H       2.06221005      0.39110226     -1.40618874
H       0.29846668     -1.38270686      1.41494632
H      -2.13122436     -0.25318344      1.62383940
H      -2.18949762     -1.45518530      0.35469936
H      -2.80308587      0.94387453     -0.69028488
H      -0.43479946      1.71703140     -1.51866578
