14
b3lypvtz=-203661.27188674
C      -2.15900770     -0.40435521      0.40191236
C      -0.85611685     -0.59153368      0.56497638
C       0.19086160      0.11306219     -0.22877564
C       0.49785146      1.53786962      0.00522883
O      -0.26671238      1.12195656     -1.13173414
C       1.26433011     -0.78027681     -0.79770407
N       2.32860583     -1.15005291     -0.22391347
H      -2.88072432     -0.93981912      1.00325967
H      -2.53370149      0.29102870     -0.33737371
H      -0.48469376     -1.30358670      1.29441137
H       1.49096517      1.91498743     -0.21711614
H      -0.06106006      2.07666950      0.76282792
H       1.06374769     -1.14578303     -1.80685410
H       2.40565468     -0.74016655      0.71085474
