15
b3lypvtz=-191159.56418623
C      -1.48893725      0.10750695      0.72625985
C      -0.55263731     -0.74274101     -0.25776968
C       0.94681619     -0.79434985      0.12451974
C       1.53842346      0.66844044     -0.00037289
N       0.44562841      1.46252487      0.58194521
C      -0.63940988      1.13779105     -0.00097368
N      -0.60127055      0.38216980     -1.28161894
H      -2.53454180      0.00421150      0.43506672
H      -1.34301212      0.03950072      1.80076465
H      -0.97201815     -1.68928752     -0.59757655
H       1.46470703     -1.46887519     -0.55904822
H       1.08097850     -1.17185665      1.13873921
H       1.76172310      0.88661616     -1.04343215
H       2.43937997      0.79321647      0.59649440
H      -1.54562960      0.38523225     -1.66309764
