16
b3lypvtz=-232750.86248465
O      -2.49233936     -0.26352561     -0.58001888
C      -1.57636998     -0.01185199      0.47833280
C      -0.32500930     -0.92750114      0.45541450
C       0.43322978      0.17428818     -0.33171181
C       1.84001497      0.51044037      0.08260372
F       2.70088680     -0.55350652     -0.20939116
C      -0.67898271      1.17849673      0.08374347
H      -2.92126234     -1.11004902     -0.41882753
H      -2.10516290      0.06816120      1.43245136
H       0.09227448     -1.07838285      1.45302115
H      -0.44462111     -1.89653660     -0.02770366
H       0.40557951     -0.01911196     -1.40374551
H       2.21480619      1.38975381     -0.44822892
H       1.90439929      0.69302718      1.15939422
H      -1.08644745      1.83000193     -0.68670744
H      -0.39422387      1.77842728      0.94986773
