18
b3lypvtz=-181903.77435852
C       2.00334730     -1.11659601     -0.30086916
C       1.36215291      0.17487802      0.14759393
N       1.83837286      1.33493808     -0.06002338
C       0.05275252      0.06110003      0.89886825
C      -1.08157896     -0.50879637      0.06519117
C      -1.77451012      0.36107311     -0.94838239
C      -2.49345166     -0.05026628      0.31037619
H       2.18282633     -1.77367396      0.55406974
H       2.95114976     -0.93411053     -0.80634632
H       1.34574390     -1.65935992     -0.98345429
H       2.71764433      1.28069359     -0.57725741
H       0.19956539     -0.56889216      1.78358843
H      -0.20904843      1.06043284      1.24629385
H      -0.97334737     -1.55283721     -0.20386129
H      -2.08575484     -0.08307665     -1.88378156
H      -1.44358365      1.38758209     -1.02979227
H      -2.65212034      0.70397541      1.06954601
H      -3.29082094     -0.77639809      0.23209249
