19
b3lypvtz=-171830.1198384
C      -3.23964693      0.00000876      0.35491446
C      -1.94619993     -0.00001601     -0.40069903
C      -0.73455937      0.00001298      0.14735690
C       0.55302776     -0.00002020     -0.60682534
C       1.57933175     -1.08541037     -0.13932447
C       2.35566983      0.00000711      0.64700423
C       1.57934793      1.08538464     -0.13939568
H      -3.07322269      0.00010022      1.43284345
H      -3.84458734     -0.87657041      0.10557875
H      -3.84463719      0.87651279      0.10543751
H      -2.02448148     -0.00006663     -1.48565413
H      -0.65544504      0.00006128      1.23392157
H       0.34576843     -0.00005419     -1.67757258
H       2.15300415     -1.48127086     -0.97745343
H       1.17503295     -1.92315000      0.42833279
H       2.10675413      0.00004368      1.70826962
H       3.44110113     -0.00000401      0.55390702
H       2.15302658      1.48118141     -0.97755042
H       1.17506234      1.92316782      0.42820678
