16
b3lypvtz=-227764.04200363
N      -3.18801310     -0.29793211      0.09793284
C      -1.92034874      0.40597706     -0.11401514
C      -0.75327164     -0.54799185      0.11620590
C       0.60398669      0.10967129      0.06293229
O       0.76331098      1.31081023      0.13422487
C       1.82131888     -0.79012456     -0.07128342
O       3.01673317     -0.06514342     -0.00306348
H      -3.36090987     -0.95881654     -0.65129507
H      -3.96024646      0.35711564      0.08561194
H      -1.82203820      0.86329391     -1.10708775
H      -1.85595385      1.22015886      0.60714155
H      -0.85870537     -1.01172763      1.10326913
H      -0.77495385     -1.37786614     -0.59798678
H       1.73732017     -1.32430928     -1.02868485
H       1.78377458     -1.55429540      0.71566546
H       2.75348561      0.86731896      0.05443650
