15
b3lypvtz=-212102.08541676
C       0.91790239      2.17232522     -0.18455445
N       1.00893865      0.98910314      0.25849202
C      -0.07947574      0.12039264      0.06883927
N      -1.28335777      0.56959565      0.16840794
N      -2.26622415     -0.44676279      0.03244028
N       0.23619118     -1.19295170     -0.18156390
C       1.58062061     -1.71989033      0.00766368
H       1.72644511      2.86941967      0.01978079
H       0.05640825      2.52666804     -0.75300902
H      -2.25801426     -0.81760074     -0.91790308
H      -3.16152020      0.00155438      0.17145717
H      -0.52025296     -1.80821857      0.08990789
H       2.28786366     -1.19122576     -0.62705920
H       1.57824045     -2.76874122     -0.28659985
H       1.93214377     -1.64284661      1.04058448
