13
b3lypvtz=-237088.32358052
N      -2.37829426     -1.11616338      0.16971651
C      -2.02400355      0.03064994     -0.25808512
N      -0.76912054      0.51979015     -0.49642990
C       0.43137461     -0.19712657     -0.18579466
C       1.63852004      0.70458035     -0.39414641
O       1.56413261      1.85299382     -0.72552277
O       2.83842602      0.12441610     -0.17427257
H      -1.58465013     -1.72820164      0.35530597
H      -2.80062581      0.75804488     -0.49168643
H      -0.64286559      1.48775201     -0.74829905
H       0.54945604     -1.08891792     -0.81611831
H       0.44019088     -0.54707635      0.85655602
H       2.73735967     -0.80064139      0.08217673
