14
b3lypvtz=-203670.1082367
C      -1.11648801      0.98439808      0.37276699
C       0.23983531      1.38024150     -0.15288403
C       1.07202967      0.34309352     -0.06886588
C       0.36988301     -0.86537641      0.44695072
N      -1.02046947     -0.46063252      0.72426848
C      -0.75255279     -1.35236688     -0.40254759
O       2.39335173      0.33897525     -0.39373738
H      -1.39274694      1.53762690      1.27537002
H      -1.92515999      1.13044656     -0.34953283
H       0.48638822      2.35504853     -0.54543172
H       0.86753068     -1.51574318      1.16018546
H      -0.81230088     -0.95391718     -1.40994744
H      -1.13459954     -2.35822023     -0.27455831
H       2.72529900     -0.56357396     -0.38203648
