13
b3lypvtz=-213770.29658077
O       2.36523284      0.42786682     -0.43080754
C       1.67993378     -0.45300611      0.01963275
C       0.29698356     -0.25172075      0.61136824
C      -0.33968939      1.12960517      0.31661281
N      -1.68244805      0.72754152     -0.13474407
C      -1.64340528     -0.63062761     -0.35340963
N      -0.61933774     -1.27160432      0.05727766
H       2.01985351     -1.50584427      0.02945697
H       0.39970046     -0.42725495      1.69036650
H       0.21886082      1.65688100     -0.45989373
H      -0.39479053      1.76642271      1.19745939
H      -2.18796085      1.31433044     -0.77912372
H      -2.48928813     -1.11615763     -0.82663263
