14
b3lypvtz=-201312.5536059
C      -2.49338836      0.30361994     -0.50026880
C      -1.57238147     -0.41405065      0.49352916
C      -0.12350298     -0.17162667      0.22486204
N       0.72494163     -1.14501136     -0.06421298
N       1.89316409     -0.47855542     -0.22879426
H       2.73316842     -0.98010175     -0.46056264
C       1.70502740      0.83927607     -0.03701148
N       0.44423150      1.07352268      0.25101470
H      -2.30559168      1.37701329     -0.49282287
H      -2.33147367     -0.06088554     -1.51597159
H      -3.54037419      0.13642232     -0.24367829
H      -1.79893126     -0.07163881      1.50671216
H      -1.74505244     -1.49009843      0.46942038
H       2.49393101      1.56989735     -0.11387352
