12
b3lypvtz=-200520.27307086
C      -2.32592649      0.00382866      0.00000085
C      -0.98084289      0.00206679     -0.00000701
C      -0.17347233      1.21544639     -0.00001383
N       1.11023294      1.23384798     -0.00001084
C       1.74602319     -0.00516059     -0.00001033
N       1.16185135     -1.15272930     -0.00000486
N      -0.18413477     -1.14291513     -0.00000830
H      -2.85963111      0.94131267     -0.00000242
H      -2.90602715     -0.90802731      0.00000841
H      -0.70343843      2.16423378     -0.00000402
H       2.82561200     -0.00242979     -0.00000329
H      -0.60345133     -2.05675114      0.00000165
