14
b3lypvtz=-226994.94554657
C      -1.59682760     -0.48976528      0.68382580
C      -0.40707615      0.13964955      0.00513178
C       0.86618341     -0.13648858      0.32759300
C       2.02385972      0.50289475     -0.26639308
N       3.20787574      0.19295486      0.10038838
O      -0.73425089      1.05909990     -0.93721974
O      -2.67608594     -0.67427009     -0.23806079
H      -1.98848744      0.19176473      1.44269496
H      -1.31216187     -1.42020545      1.17688700
H       1.05759112     -0.88158145      1.08832009
H       1.81430902      1.25075258     -1.03586831
H       3.89599216      0.73415790     -0.42102857
H      -1.68073381      0.95483464     -1.11882939
H      -2.47018748     -1.42379806     -0.80744113
