14
b3lypvtz=-227010.55620015
C      -0.37099351      1.60728276     -0.22980293
C      -0.16053115      0.31175190     -0.00447885
C      -1.27485454     -0.68600769      0.20967051
N      -2.60031911     -0.09248035      0.05365518
C       1.21247680     -0.29218234     -0.02171722
O       1.41679899     -1.44747095     -0.28470046
O       2.25031604      0.52652734      0.28310366
H       0.43177216      2.30089300     -0.44660868
H      -1.37739732      2.00156200     -0.22837111
H      -1.19164852     -1.07846186      1.22734733
H      -1.07771276     -1.53899115     -0.44885100
H      -2.83070350      0.01179058     -0.92775280
H      -3.30344656     -0.69781498      0.45660802
H       1.91579098      1.37974775      0.58386435
