15
b3lypvtz=-240224.1690376
C      -2.56600479      0.51274907      0.47071534
O      -1.96005073     -0.34742083     -0.48541398
C      -0.76339748     -0.93226106     -0.06806513
C       0.45404514     -0.01827557     -0.10874584
O       0.38793306      1.16532607     -0.35165766
C       1.80698139     -0.65526389      0.17136221
O       2.83466102      0.29542943      0.16851447
H      -2.73758786     -0.01538637      1.41673349
H      -1.96163649      1.40230899      0.65479158
H      -3.52584317      0.81104248      0.05473445
H      -0.84109419     -1.34116820      0.95234508
H      -0.56951099     -1.78197694     -0.72930611
H       1.98363729     -1.42839759     -0.58946607
H       1.76230960     -1.17271790      1.13828254
H       2.41637721      1.13621932     -0.07632036
