13
b3lypvtz=-192836.87994795
C       2.71384142     -0.85852135     -0.36186592
C       1.90240573     -0.05981776      0.01555798
C       0.90473103      0.90505571      0.45413403
C      -0.53439690      0.57347833      0.02285596
O      -1.23642566      1.43744594     -0.45171041
C      -1.00835675     -0.81589045      0.26557835
C      -2.25165936     -1.18327221     -0.03024526
H       3.43707477     -1.55835475     -0.69893514
H       1.13223771      1.90238551      0.07773419
H       0.90779432      0.96272651      1.54928641
H      -0.30184031     -1.51614220      0.69244219
H      -2.94170595     -0.47227258     -0.46670232
H      -2.60606505     -2.18875070      0.15150591
