14
b3lypvtz=-180338.92551338
C       1.66285854     -0.01146798      0.69833584
C       0.63490349      0.27661348     -0.10734345
C       0.48679322      1.57301246     -0.68919187
C       0.32355831      2.64655523     -1.20507351
C      -0.42969509     -0.70556559     -0.48431333
C      -1.61611040     -0.89855266      0.39056650
N      -0.61971125     -1.96891848      0.22337144
H       1.80047628     -1.00220879      1.10935688
H       2.40059204      0.73529366      0.95323416
H       0.18973952      3.59945074     -1.65310116
H      -0.58877603     -0.77917254     -1.55491531
H      -1.63518382     -0.35474958      1.32712960
H      -2.58453217     -1.09468053     -0.05171648
H      -0.02491265     -2.01560943      1.04366071
