11
b3lypvtz=-215369.06084461
C       0.90335550      0.86007557      0.15676047
C       1.17155611     -0.45296199      0.05334134
C      -0.14437682     -1.02726644     -0.40056556
C      -1.10776603     -0.27542493      0.62580320
O      -1.91495206     -0.50510817      1.45329480
C      -0.54557978      0.93710664     -0.24589826
O      -0.63313452     -0.02379135     -1.34103013
H       1.51807303      1.66659266      0.52107887
H       2.06300070     -1.00074781      0.31095278
H      -0.25337216     -2.05577661     -0.72178943
H      -1.05680395      1.87730245     -0.41194808
