16
b3lypvtz=-227762.56799015
C       2.89177540      0.36226262      0.03175362
O       1.55808201      0.17082312     -0.39699047
C       0.87010086     -0.81319522      0.35713087
C      -0.53255764     -0.99540795     -0.19573423
C      -1.45612910      0.18568821     -0.01317789
N      -1.18068184      1.40564927      0.16325560
O      -2.75459653     -0.21039723     -0.07458941
H       3.33156884      1.12458225     -0.60815531
H       2.93556082      0.70059731      1.07408806
H       3.47574166     -0.56163072     -0.05927262
H       1.40826438     -1.76837964      0.30107832
H       0.83102164     -0.51773361      1.41452625
H      -0.99325001     -1.86244658      0.28115873
H      -0.47592860     -1.22407287     -1.26348233
H      -0.17710539      1.55869400      0.14095512
H      -3.28390351      0.59665103      0.00480271
