13
b3lypvtz=-211338.02358742795
C       0.73858350     -0.34131157     -0.19435157
C       1.84631756      0.68526251     -0.15024464
N       3.07940537      0.33611138     -0.27753513
N       4.15911008     -0.00749185     -0.39338994
N      -0.52873886      0.35336762     -0.01910522
C      -1.58659628     -0.34554058     -0.02477934
N      -2.82720058      0.19224440      0.12962218
H       0.76367031     -0.88101416     -1.15174451
H       0.89000080     -1.09203242      0.59431253
H       1.63619070      1.73246351     -0.01176571
H      -1.60182125     -1.43501888     -0.15291066
H      -3.64708256     -0.38181711      0.12142184
H      -2.92183880      1.18477716      0.25426328
