12
b3lypvtz=-257143.93220152
C      -2.44348524     -0.73118870      0.06866740
C      -1.14786532     -0.67701270     -0.22314044
C      -0.30252402      0.52318426     -0.04256701
N      -0.65751004      1.74121911      0.01809126
C       1.18813143      0.26826601      0.06998927
F       1.44179965     -0.58733928      1.10561965
F       1.63522872     -0.34596273     -1.06972631
H      -2.97769247      0.11631967      0.48174947
H      -3.01537071     -1.63608096     -0.08230777
H      -0.63939790     -1.56004590     -0.59055661
H      -1.66695038      1.84211551     -0.09928371
H       1.74642027      1.19024672      0.22058680
