18
b3lypvtz=-210213.15461633
C       1.68396169      1.58595668      0.02186795
C       0.48249033      0.75808015     -0.36974016
C       0.48248546     -0.75808251     -0.36973701
C       1.68395150     -1.58596524      0.02187424
C      -0.31881152      0.00000350      0.65517601
C      -1.82269853      0.00000821      0.64735464
F      -2.31680153      0.00000686     -0.66113107
H       2.37911554      1.69546420     -0.81383642
H       2.23448736      1.14549924      0.85352327
H       1.37868253      2.58894246      0.32864202
H      -0.10906416      1.19065497     -1.16809974
H      -0.10907197     -1.19065679     -1.16809470
H       2.23448493     -1.14550371      0.85352224
H       1.37866539     -2.58894530      0.32866014
H       2.37910045     -1.69548723     -0.81383229
H       0.08518176      0.00000436      1.66366023
H      -2.22379632      0.88955866      1.14068685
H      -2.22380192     -0.88953751      1.14069082
