16
b3lypvtz=-227734.15389682
C       0.73957589      1.85980375     -0.11030418
C       0.81914903      0.36624579     -0.01242258
N       1.69240915     -0.10749103      0.78687894
O       1.67423783     -1.52659662      0.81997740
C      -0.12269428     -0.47555419     -0.83717531
C      -1.35389176     -0.93177479     -0.05916214
O      -2.12405573      0.22282603      0.28112651
H       1.46466338      2.32822289      0.55174157
H      -0.26669176      2.19118566      0.15251451
H       0.93057591      2.18552033     -1.13647409
H       2.39957899     -1.71911539      1.42131560
H      -0.45359513      0.09580181     -1.70619350
H       0.40373950     -1.36321925     -1.18907237
H      -1.94033960     -1.61322898     -0.68636495
H      -1.04012288     -1.47319971      0.83691286
H      -2.82253853     -0.03942628      0.88670171
