19
b3lypvtz=-195138.68664337
C      -2.89282059      0.38358598      0.11212355
C      -1.73966458     -0.54788917     -0.26273098
C      -0.43822301     -0.17213134      0.41981912
C       0.34567141      1.03798180     -0.12773689
C       1.44670051      0.01472385     -0.46951060
C       2.78569288      0.15358357      0.21964178
O       0.64958461     -1.07207848      0.07694938
H      -2.68137681      1.41725225     -0.17042237
H      -3.08142511      0.36727338      1.18780137
H      -3.81504538      0.08822370     -0.38920565
H      -1.58456361     -0.54655255     -1.34535464
H      -1.98183433     -1.57704051      0.01614025
H      -0.58369921     -0.15266071      1.50560818
H      -0.11274844      1.53451156     -0.98175179
H       0.63084457      1.78558522      0.61056853
H       1.59307710     -0.13358067     -1.54408549
H       3.37871272     -0.75216727      0.08249179
H       2.65738727      0.31991669      1.29055064
H       3.34513702      0.99386770     -0.19917718
