14
b3lypvtz=-203674.77102115
C       0.53741821     -1.16731397     -0.66813161
C      -0.56942462     -0.53198911      0.18668867
C      -1.37416528      0.62972640     -0.43033292
O      -0.69712050      1.61443157      0.39647309
C       0.14397223      0.58400758      0.97561798
C       1.53233470      0.55360541      0.37975116
N       1.74927277     -0.34362625     -0.49036905
H       0.29119889     -1.20590811     -1.73177360
H       0.76834523     -2.18993188     -0.36135954
H      -1.15841857     -1.24858710      0.75201044
H      -1.20152879      0.80525175     -1.49553945
H      -2.44725814      0.62339859     -0.23126842
H       0.11933184      0.61061490      2.06679316
H       2.30604203      1.26632022      0.65144011
