18
b3lypvtz=-181900.28253813
C      -2.93389342      0.16353405     -0.46608702
C      -1.99357486     -0.39956444      0.28370810
C      -0.62530956     -0.79059204     -0.18822810
C       0.50290088     -0.00972145      0.52628320
N       0.42125850      1.39976433      0.15332914
C       1.84530638     -0.60044606      0.18318569
C       2.80162382     -0.01176140     -0.52288521
H      -2.76886181      0.37692465     -1.51573939
H      -3.90355938      0.42263169     -0.06105643
H      -2.20633661     -0.59550279      1.33236177
H      -0.52864555     -0.62544872     -1.26301871
H      -0.46866725     -1.85746929     -0.00174011
H       0.35660789     -0.16792645      1.60876209
H       1.04749304      1.95706446      0.72205686
H      -0.51852625      1.74682605      0.30273162
H       2.00460803     -1.60519441      0.56494084
H       3.73791380     -0.51503664     -0.72501793
H       2.67022337      0.98241945     -0.92801839
