20
b3lypvtz=-182659.11191109
C       2.34986836     -0.50232680     -0.16810316
N       1.19137410     -0.36820804      0.70635614
C      -0.01150088      0.20392196      0.10427369
C       0.16481617      1.62834250     -0.43366588
C      -0.72121254     -0.73560621     -0.91780479
C      -2.06246970     -0.48739726     -0.18305875
C      -1.26500291      0.07967124      1.01790075
H       3.15515771     -0.99272016      0.38000851
H       2.09388296     -1.14389479     -1.01349267
H       2.74428096      0.43984142     -0.57429465
H       1.44002640      0.16615316      1.53177728
H      -0.77077170      2.01653995     -0.84110261
H       0.90934552      1.66791849     -1.23060560
H       0.48436994      2.30260381      0.36564351
H      -0.66643695     -0.45796032     -1.97061573
H      -0.37611158     -1.76187436     -0.79921630
H      -2.68547832     -1.35919195      0.00901803
H      -2.67521850      0.26853749     -0.67360055
H      -1.09940992     -0.66991300      1.79072079
H      -1.63282114      0.99735588      1.47830499
