16
b3lypvtz=-181126.57412489
C      -2.77735845      0.01848320     -0.14960703
C      -1.45754374     -0.02267933     -0.21637799
C      -0.41942410     -1.09221896      0.06508611
C       0.62861495      0.04658694      0.25216166
C      -0.37850379      1.02182066     -0.42942295
N       1.88180956     -0.13773210     -0.43537591
C       2.95343204     -0.00581982      0.21709416
H      -3.35926440     -0.86315018      0.08960475
H      -3.32442526      0.93555084     -0.33074818
H      -0.58643563     -1.76332630      0.90726582
H      -0.17838812     -1.68176334     -0.82210446
H       0.76377854      0.29202818      1.31327770
H      -0.51368336      2.00241781      0.02630974
H      -0.12319441      1.14744798     -1.48393720
H       2.98293155      0.24297568      1.28554181
H       3.90765463     -0.14062125     -0.28729417
