15
b3lypvtz=-240245.97667355
C      -2.53234325     -0.28466411     -0.02862789
C      -1.07465124      0.04960173     -0.31732965
O      -0.88698958      1.41087369      0.03037085
C      -0.14507545     -0.88787889      0.45842398
O       1.14653783     -1.12657739     -0.17889085
C       2.05140280     -0.15414551     -0.19302542
O       1.90386101      0.97735087      0.19612874
H      -3.17280860      0.44060553     -0.52808650
H      -2.78894286     -1.28252274     -0.38642298
H      -2.73458527     -0.22885955      1.04257045
H      -0.87894369     -0.10597153     -1.38816986
H       0.06485658      1.57735177      0.09448734
H       0.02322187     -0.49639150      1.46235894
H      -0.56853319     -1.88708544      0.52086428
H       2.98559005     -0.53364293     -0.62379244
