19
b3lypvtz=-192730.48262931
C      -0.45795727      1.91246338      0.06599339
C      -0.31414431      0.44350222      0.48893238
C      -1.66569206     -0.22300870      0.25715864
N      -1.98442453     -1.00667438     -0.68019206
N       0.74789755     -0.27828455     -0.21431813
C       1.96676439      0.48145904     -0.45753760
C       1.06440197     -1.53570290      0.45824429
H       0.39751177      2.51225275      0.37266290
H      -0.57933979      1.99038849     -1.01520954
H      -1.34522693      2.34083444      0.53371368
H      -0.13037107      0.43366418      1.57939841
H      -2.43926057      0.06200159      0.97566225
H      -1.16265559     -1.17004188     -1.27117695
H       2.67106256     -0.15299289     -0.99609048
H       1.76981668      1.35267075     -1.07745007
H       2.46221495      0.81798340      0.46908346
H       0.16471112     -2.13243894      0.59493393
H       1.76289214     -2.11107850     -0.14968445
H       1.52387598     -1.37562749      1.44808796
