13
b3lypvtz=-211331.26450718
C      -3.49314830     -0.16567280      0.00000928
C      -2.28756891      0.39704031     -0.00000683
N      -1.08366448     -0.29685564     -0.00000165
C       0.14016892      0.27532396     -0.00000777
N       1.20982405     -0.44097420      0.00000679
N       2.32439774      0.39542047     -0.00006917
N       3.38000684     -0.25580261     -0.00001346
H      -4.37740086      0.45157875      0.00005476
H      -3.62984808     -1.23911148     -0.00002542
H      -2.16746172      1.47289047     -0.00002768
H      -1.10129460     -1.30732443      0.00001428
H       0.16716190      1.36430900     -0.00000021
H       4.12632150      0.44868420      0.00014108
