19
b3lypvtz=-218440.50903299
C       2.93903398     -0.43640006      0.21730156
O       1.80083970      0.28247016     -0.20241319
C       0.60265850     -0.46730071     -0.09866437
C      -0.57251398      0.40251817     -0.53405650
C      -0.72006344      1.64578709      0.34749440
C      -1.86259989     -0.42168381     -0.59585820
O      -2.25660419     -0.98056497      0.65657934
H       2.85785790     -0.74402519      1.26762755
H       3.79999227      0.22089586      0.10675942
H       3.09735565     -1.33485512     -0.39319601
H       0.45770582     -0.81328515      0.93286899
H       0.66456184     -1.36059774     -0.73700402
H      -0.36755911      0.73151048     -1.55894238
H      -1.53275453      2.28443078     -0.00553157
H       0.19835884      2.22978819      0.34397455
H      -0.92640772      1.37397949      1.38634634
H      -1.72685733     -1.27627971     -1.26082159
H      -2.66769535      0.19399548     -1.01382905
H      -2.54406996     -0.26755123      1.23393473
