15
b3lypvtz=-214509.30415309
C       2.25755100      0.02172639      0.97841285
N       0.88810652      0.31204110      0.58085571
C       0.24372113     -0.55989281     -0.05417143
N      -1.10075749     -0.41172656     -0.50677440
C      -1.50460546      0.95198318     -0.90709021
C      -1.99429469      0.38438555      0.35994008
O       0.74008843     -1.77406045     -0.40170422
H       2.31382126     -0.85329729      1.63274328
H       2.66085751      0.87902741      1.51450075
H       2.89750740     -0.17829812      0.11380659
H      -2.14739935      0.98723850     -1.77667981
H      -0.73572537      1.70983419     -0.83821100
H      -3.00175138     -0.00312795      0.43394638
H      -1.55091056      0.76547736      1.27015069
H       0.03379106     -2.23131051     -0.87780383
