12
b3lypvtz=-228826.16403086
N       2.40202877     -1.18627947     -0.21396138
C       1.29489380     -0.80937818      0.26974978
C       0.65441371      0.54076557      0.08689267
N       1.32442297      1.62630081      0.00402288
C      -0.80529945      0.62716357      0.01952301
C      -1.62383394     -0.41823060     -0.02072473
F      -2.95020750     -0.25728319     -0.09957937
H       2.82137901     -0.45387342     -0.79456028
H       0.75269681     -1.52349244      0.89088837
H       2.32623024      1.44711077      0.09244351
H      -1.21863666      1.62653270     -0.02412759
H      -1.34521274     -1.46279610     -0.00263089
