14
b3lypvtz=-203614.68360675
C       0.62310465      1.53432400     -0.45019189
C      -0.67021631      1.38974416      0.49083788
C      -0.65977846     -0.07248181     -0.05261382
C       0.80177868     -0.00681422     -0.14944529
C       0.67498022     -1.53779587     -0.38093619
N       1.22798199     -2.55999928     -0.83051714
O      -0.57703179     -1.53164532      0.28168406
H       1.41144726      2.19906232     -0.10688276
H       0.34924493      1.76825473     -1.47599257
H      -0.39190482      1.48586343      1.53792684
H      -1.53949912      2.00429320      0.26469233
H      -1.14867611     -0.04514381     -1.02850079
H       1.16099657     -0.00189458      0.88554521
H       2.11607235     -2.33466693     -1.26870588
