11
b3lypvtz=-210613.3769522
N       1.60597972     -1.31102586     -0.00005703
C       0.80092822     -0.33717377     -0.00010564
N       1.11926978      1.04635044      0.00013529
C      -0.00901092      1.66258637      0.00004065
N      -1.12869889      0.86338732     -0.00003840
C      -0.71001896     -0.47705857      0.00004775
N      -1.38296665     -1.54606381      0.00004394
H       2.56374559     -0.95635347     -0.00002139
H      -0.11126962      2.74033168     -0.00001804
H      -2.08142136      1.18226336      0.00016512
H      -2.38821391     -1.37481470     -0.00000424
