14
b3lypvtz=-224569.5943404
C      -2.98854137     -0.32829102     -0.21839210
N      -1.84605350      0.23088717     -0.25511337
N      -0.83237491     -0.29827874      0.48004631
C       0.48657561      0.08255971      0.13569904
N       0.81095883      1.46878356      0.11034692
C       1.45885988     -0.80774781     -0.08220267
O       2.76383996     -0.46409580     -0.24295332
H      -3.19231077     -1.24064017      0.34785585
H      -3.79698218      0.13083289     -0.77038788
H      -0.95105289     -1.25751587      0.79369146
H       0.48150450      1.93065422      0.95205349
H       0.35952744      1.93059720     -0.67184321
H       1.28827729     -1.87444551     -0.12134608
H       2.78342312      0.50576517     -0.18313345
