16
b3lypvtz=-202011.0836168518
C      -1.21867156     -1.16214478     -1.44406767
C      -1.22502202     -0.09651605     -0.62600408
C      -0.20745634      0.26205237      0.31816999
N      -0.28509339      1.40799889      1.00477057
N      -1.11258786      2.41085277      1.04992931
C       1.01552791     -0.57260841      0.55344566
N       2.11856452     -0.20423305     -0.35546719
H      -0.39766531     -1.86594061     -1.47910685
H      -2.04989632     -1.35409761     -2.10656911
H      -2.09031353      0.55632267     -0.67213568
H       0.48914966      1.54404716      1.64888830
H      -1.83935571      2.24580483      0.35345961
H       0.72892562     -1.62939291      0.49042739
H       1.37172657     -0.41540462      1.57643220
H       1.81058019     -0.27432980     -1.31857865
H       2.89158756     -0.85241085     -0.24729185
