13
b3lypvtz=-213769.13054894
C      -3.26086208     -0.56106818     -0.00000353
N      -2.33981586      0.31533899     -0.00006528
C      -1.01321049     -0.09503035     -0.00000801
C      -0.05741543      0.84674256     -0.00007469
N       1.32233321      0.67858188     -0.00003779
C       2.04451254     -0.48875845      0.00005951
O       3.25322292     -0.51814142      0.00008121
H      -3.06585452     -1.63929218      0.00009416
H      -4.29745603     -0.23983777     -0.00004723
H      -0.79232696     -1.16154017      0.00008893
H      -0.37239471      1.88095033     -0.00016892
H       1.89105199      1.51256174     -0.00009577
H       1.42212141     -1.39452598      0.00011843
