15
b3lypvtz=-216911.49426068
C       2.41043682      0.34929311     -0.23181793
C       1.47688526     -0.39318121      0.34712864
C       0.01010259     -0.05922297      0.37351984
C      -0.71426438     -1.14385312     -0.43370889
O      -1.14797023     -2.16303555      0.03148615
O      -0.21825745      1.21080630     -0.19325609
C      -1.50332055      1.74150392      0.09129941
H       3.44811127      0.04393464     -0.21951496
H       2.16591994      1.28408772     -0.71612132
H       1.72904888     -1.33093174      0.82948362
H      -0.36035027     -0.10981601      1.40628336
H      -0.77694299     -0.91022632     -1.51713193
H      -1.64696930      1.87168787      1.16952970
H      -2.30772440      1.10537340     -0.29420649
H      -1.55924619      2.71212397     -0.39666311
