11
b3lypvtz=-323848.91591944
F       2.31012248      0.69811037     -0.43332649
C       1.23706086     -0.12055657     -0.23078665
F       1.50287452     -0.87371613      0.88445808
C       0.00000050      0.71744744     -0.00000152
C      -1.23705999     -0.12055626      0.23078405
F      -2.31012152      0.69811095      0.43332325
F      -1.50287365     -0.87371653     -0.88446021
H       1.16300920     -0.80113784     -1.07945846
H      -0.17076188      1.35286206     -0.86961586
H       0.17076297      1.35286248      0.86961250
H      -1.16300850     -0.80113698      1.07945631
