15
b3lypvtz=-240215.42299253
O      -1.74906381      0.21683932     -0.76474484
C      -1.28955128      0.14234925      0.57124205
O      -1.39327410      1.40559092      1.15414439
C       0.17419012     -0.26887102      0.64005944
C       1.18807172      0.53890786     -0.18621040
C       1.47384544     -0.79628604     -0.89085732
O       0.39782498     -1.45630528     -0.16741577
H      -1.54076770     -0.63292867     -1.17489616
H      -1.89487241     -0.59744099      1.11796783
H      -2.30980064      1.69344030      1.08733245
H       0.45710822     -0.43588146      1.68279730
H       2.01093275      0.97686282      0.37204275
H       0.72443628      1.29274328     -0.81621635
H       1.31175794     -0.82860380     -1.96957665
H       2.43916249     -1.25041649     -0.65576870
