16
b3lypvtz=-204450.21142956
C      -3.48009286      0.11091394      0.00019772
C      -2.12673772     -0.58588214     -0.00020963
N      -1.03750920      0.38899397     -0.00023888
C       0.15524736     -0.05388240     -0.00007693
C       1.29409826      0.84323006     -0.00011737
C       2.57427645      0.45497561      0.00002990
O       2.95031921     -0.85448944      0.00023744
H      -3.58395402      0.74559140     -0.88065993
H      -3.58363221      0.74521441      0.88136552
H      -4.29436954     -0.61613714      0.00019356
H      -2.04483825     -1.23618308     -0.87936396
H      -2.04449512     -1.23660884      0.87860014
H       0.37752721     -1.12826750      0.00009645
H       1.08395379      1.90354729     -0.00027715
H       3.38034222      1.17980843     -0.00000745
H       3.90850141     -0.91875256      0.00030356
