16
b3lypvtz=-227737.17615187
C      -2.65664269     -0.18506577     -0.01629588
O      -1.33457436     -0.67449829     -0.17861149
C      -0.34932811      0.14090462      0.41878693
O      -0.26645576      1.41204242     -0.16050293
C       0.95823527     -0.61459515      0.27615381
C       2.26091259      0.04509418      0.50418044
N       1.77675998     -0.18904580     -0.86633822
H      -2.91917132     -0.10349059      1.04584732
H      -2.78208062      0.79258786     -0.48601930
H      -3.32111041     -0.90406699     -0.49124199
H      -0.60343812      0.30223367      1.47430065
H       0.29243563      1.30425028     -0.94855731
H       0.88154405     -1.67453478      0.48357751
H       2.28710094      1.08694180      0.79569467
H       3.07758515     -0.56119798      0.87596315
H       2.24046377     -0.97561251     -1.30403838
