14
b3lypvtz=-231999.1605902
C       2.02455052     -1.01169557      0.00000103
C       1.17495057      0.02224921     -0.00000232
C       1.65787147      1.45033991     -0.00000752
C      -0.25965977     -0.18721521     -0.00000112
F      -0.67623802     -1.49461136      0.00000590
C      -1.23518324      0.72857236      0.00000183
O      -2.55939606      0.44237806      0.00000826
H       3.09305259     -0.84746979      0.00000114
H       1.67657593     -2.03383066      0.00000479
H       2.74554033      1.48041172     -0.00000741
H       1.30354679      1.99156898      0.88028793
H       1.30354715      1.99156245     -0.88030716
H      -1.02639968      1.78572859     -0.00000210
H      -2.66576058     -0.51791068      0.00001076
