14
b3lypvtz=-250333.18759459
C      -1.19547683     -0.33964590      1.31541747
C      -0.59871913      0.00430696     -0.04386921
O      -1.08548609      1.22706230     -0.52144999
O      -0.96362716     -1.03521573     -0.93895119
C       0.94772638      0.12786826      0.04426589
N       1.62154277     -1.04015765      0.03152020
O       1.46905899      1.22808000      0.14394086
H      -2.28040159     -0.31755934      1.22534567
H      -0.88331666      0.39702636      2.05467311
H      -0.88298106     -1.33055426      1.64317883
H      -0.34669719      1.85422722     -0.43761332
H      -0.96248114     -0.64889584     -1.82295385
H       1.14298226     -1.87792161     -0.25192005
H       2.62732245     -1.01992977      0.03218757
