15
b3lypvtz=-191193.92044915
C      -1.12723393      0.85920529     -0.62798697
C      -0.42277884     -0.42455455     -0.18013764
C       0.82549277     -0.08433333      0.65193649
N       0.92188636     -0.23031312      1.91076546
C       1.93600261      0.44015912     -0.09878430
C       2.82890036      0.86463971     -0.78096772
N      -1.33217200     -1.23501663      0.62468119
H      -1.50912669      1.39932118      0.23948191
H      -0.44323807      1.51069659     -1.16921511
H      -1.96392036      0.62394336     -1.28868846
H      -0.06810060     -0.94751256     -1.07782015
H       0.03255938     -0.60988140      2.25085087
H       3.63642568      1.24315867     -1.35686429
H      -2.27230211     -1.20452959      0.25319701
H      -1.04239456     -2.20498275      0.64955170
