13
b3lypvtz=-211386.92343662
N       2.08060963      1.31568800      0.30671836
C       1.08231016      0.55497634      0.11400534
N       0.96785312     -0.82640744      0.03520064
C      -0.43164817     -1.24041212     -0.00132651
C      -1.16868413      0.07185072     -0.22014736
N      -2.41201477      0.14722644     -0.45120332
N      -0.20312297      1.05114662     -0.10086777
H       2.94038356      0.78776628      0.42092363
H       1.64010710     -1.37886801      0.53850026
H      -0.76603056     -1.69637204      0.93474634
H      -0.64137271     -1.93490703     -0.81482781
H      -2.72850186      1.10870334     -0.56313151
H      -0.35988841      2.03950890     -0.19869028
