14
b3lypvtz=-255284.39866372
C      -1.48635401     -0.77481318     -0.13778976
C      -0.72771164      0.49512048      0.25650559
C       0.46095959     -0.15423331     -0.48609035
O      -0.26256568     -1.40163102     -0.60753775
C       1.76223338     -0.34648516      0.25570298
F       2.37181700      0.90064624      0.41455521
O      -1.28773059      1.67153972     -0.27252704
H      -2.19162151     -0.59962010     -0.95345561
H      -1.96268764     -1.35193142      0.65492407
H      -0.55030121      0.58355286      1.33217248
H       0.63790530      0.31304468     -1.46056048
H       2.44189313     -0.99371000     -0.30099662
H       1.59086924     -0.77136937      1.24671774
H      -0.79670538      2.42988958      0.05837955
