11
b3lypvtz=-210585.89956736
C       1.88511689     -0.15497197      0.29118432
N       0.64019794     -0.40063449      0.36575421
C      -0.29684965      0.34192828     -0.35474873
C       0.10926703      1.38631022     -1.24633709
N       0.54661482      2.20323595     -1.93361023
N      -1.56832277      0.10479080     -0.24778862
N      -1.97007236     -0.82168209      0.59524577
H       2.56903583     -0.77013219      0.86711836
H       2.30907511      0.64136461     -0.32414683
H      -2.93220815     -1.09265511      0.51120742
H      -1.29195470     -1.43755400      1.02602142
