13
b3lypvtz=-216185.82107016
C      -0.27978400      1.04405703      0.43324556
C      -1.10440135      0.09871013     -0.44717777
C      -0.73023371     -1.35658661     -0.27676971
O      -1.49486000     -2.27518149     -0.30794172
O       0.61189554     -1.62041134     -0.12736914
C       1.51212587     -0.58707888      0.06324912
C       1.16709555      0.65951296      0.35059768
H      -0.42951457      2.07430415      0.10734652
H      -0.62727414      0.99923404      1.47145856
H      -0.92195820      0.33766400     -1.50013886
H      -2.17435716      0.18350771     -0.27342303
H       2.52652117     -0.94658619     -0.01947472
H       1.94474503      1.38885449      0.52639751
