11
b3lypvtz=-213013.15614329
N       2.62527758     -0.34679314      0.00001650
C       1.69485324      0.51568157     -0.00002142
C       0.25871305      0.23997346     -0.00005116
C      -0.77979649      1.11388814      0.00000768
O      -1.94084844      0.39866526     -0.00012367
C      -1.53262755     -0.89727061     -0.00002100
N      -0.25834902     -1.05528039      0.00001014
H       2.22645383     -1.28908890     -0.00000052
H       1.96953629      1.57169786      0.00005470
H      -0.86567856      2.18486745     -0.00005061
H      -2.30423494     -1.64813772      0.00017035
