15
b3lypvtz=-212102.78130594
C       0.04328463      1.86089886     -0.22201722
C      -0.33214391      0.45827119      0.15122959
C      -1.49068297      0.15436173      0.78124108
N      -1.84831714     -1.09043823      1.25057063
N       0.51450179     -0.61572714     -0.13110741
N       1.60342108     -0.31748075     -0.67103964
N       2.41092495     -1.39804682     -0.86746946
H       0.96389778      2.17273874      0.27754839
H       0.22996521      1.94989291     -1.29491606
H      -0.75067338      2.55523527      0.05195370
H      -2.19520050      0.94577255      1.00213188
H      -1.27619379     -1.84778908      0.90907014
H      -2.83311110     -1.29400186      1.28130538
H       3.03966147     -1.24511787     -1.64007401
H       1.92056589     -2.28846950     -0.87842701
