15
b3lypvtz=-216907.80159961
C      -1.26936184     -0.99984463     -0.04479336
C      -1.44656716      0.05687582     -1.11623717
C      -0.62760764      0.35612234      0.09983162
C       0.84152448      0.54713032      0.01739117
C       1.73965959     -0.36655547      0.37859653
O       3.09336548     -0.23722848      0.34041074
O      -1.27065809      1.27116820      0.97111753
H      -2.11660663     -1.19604184      0.59666929
H      -0.65776900     -1.86072385     -0.27421252
H      -2.40747250      0.54794052     -1.17885660
H      -0.93104252     -0.07962604     -2.05629515
H       1.17324419      1.52471451     -0.32558683
H       1.45824774     -1.34522368      0.74420589
H       3.32288095      0.64090533      0.01435264
H      -0.90183707      1.14038693      1.85189269
