16
b3lypvtz=-204440.56207833
N       2.34989984     -0.72408860     -0.00000976
C       1.09305489     -0.84247514     -0.00000359
C       0.07203740      0.26974054      0.00000424
O       0.77619449      1.49001915      0.00001004
C      -1.02894979      0.04799269      1.08551465
C      -1.93006114     -0.59099639      0.00000113
C      -1.02895113      0.04800350     -1.08550712
H       2.60145671      0.26731094     -0.00000466
H       0.66882979     -1.84973262     -0.00001077
H       0.14561026      2.21543907      0.00001406
H      -1.41834518      1.00979022      1.42350348
H      -0.76266485     -0.54657347      1.95841650
H      -2.98035611     -0.30712518      0.00000310
H      -1.86872711     -1.67821129     -0.00000422
H      -0.76266722     -0.54655389     -1.95841525
H      -1.41834684      1.00980446     -1.42348583
