13
b3lypvtz=-234687.34936666
N      -1.50533773      1.14561461     -0.64545292
C      -1.23281287     -0.00520872     -0.16922079
N      -2.08375897     -0.83207144      0.55665807
N       0.01403206     -0.61680399     -0.36946948
C       1.10021310     -0.06989273     -0.01543754
N       2.31439567     -0.72107821     -0.17700405
O       1.19451386      1.13273842      0.59669951
H      -2.47482032      1.39685488     -0.45964916
H      -1.83558623     -1.80821296      0.54311419
H      -3.06943009     -0.65811964      0.44509394
H       3.07020495     -0.13666513     -0.50453677
H       2.22097228     -1.56669754     -0.71930166
H       2.04152630      1.19006245      1.05447265
