14
b3lypvtz=-201302.7292611
C       0.10129724     -0.75992822      0.37033686
C      -1.08998074      0.09361770      0.01357210
C      -0.62215108      1.32724518     -0.24242579
N       0.79387293      1.42467847     -0.11844766
C       1.21310350      0.25749596      0.21792774
N       2.52999988     -0.04020661      0.48839048
N      -2.40122064     -0.38707644      0.10821994
H       0.23476200     -1.62234775     -0.29098642
H       0.04102610     -1.13888306      1.39334063
H      -1.18761030      2.20637955     -0.51281563
H       2.82633441     -0.98717044      0.31862693
H       3.18337398      0.65678666      0.16421548
H      -3.08658282      0.26278614     -0.25062780
H      -2.53622444     -1.29337713     -0.31969256
