17
b3lypvtz=-171072.78782855
C      -2.30370360     -0.00000018      0.42640196
C      -1.08526274      0.00000002     -0.09891710
C      -0.25158062     -1.22838558     -0.41359862
C       1.18712942     -0.75673943     -0.27112194
C       1.54150251     -0.00000007      0.98133201
C       1.18712932      0.75673983     -0.27112159
C      -0.25158078      1.22838586     -0.41359804
H      -2.82644210      0.92242665      0.64780159
H      -2.82644199     -0.92242717      0.64780116
H      -0.42654592     -1.54379502     -1.44843389
H      -0.50626013     -2.07313889      0.22915618
H       1.96720438     -1.31159204     -0.77382781
H       0.83800711     -0.00000029      1.80523807
H       2.57994045     -0.00000006      1.28278425
H       1.96720421      1.31159277     -0.77382720
H      -0.42654611      1.54379577     -1.44843317
H      -0.50626039      2.07313885      0.22915715
