16
b3lypvtz=-181137.68412365
C      -3.40401813      0.56740536     -0.04517345
C      -2.33993788     -0.16247979     -0.37746840
C      -1.04152499     -0.01215253      0.26819656
N      -0.04315919     -0.72123170     -0.06305115
C       1.21463642     -0.50400801      0.63386923
C       2.31780602     -0.20364962     -0.34191379
C       3.14800596      0.82526340     -0.24513548
H      -3.35167152      1.31886723      0.73396829
H      -4.35821144      0.44033858     -0.53747272
H      -2.39398128     -0.91328182     -1.15705202
H      -0.97561622      0.75017514      1.05829965
H       1.45539853     -1.43913277      1.15438523
H       1.14927087      0.28949547      1.39144434
H       2.40697516     -0.90257696     -1.16685972
H       3.93802246      0.98503336     -0.96705709
H       3.07125523      1.54522666      0.56147253
