12
b3lypvtz=-254524.71754705
O       0.72935654      1.62524890      0.13374926
C       0.52581723      0.58557943     -0.44387511
C       1.68410741     -0.10964921     -1.14598255
F       1.33309316     -1.35330227     -1.65696697
C      -0.82432441     -0.07092722     -0.49552748
C      -1.60048634     -0.16854336      0.75924122
O      -1.93726849      0.77990546     -0.23524021
H       2.02670892      0.52292237     -1.96807469
H       2.50135487     -0.24047451     -0.43507161
H      -0.97718675     -0.82072972     -1.26125750
H      -1.17045962      0.24709121      1.66437422
H      -2.29061253     -0.99712107      0.87993143
