16
b3lypvtz=-181139.37703125
N      -1.55599406     -0.93442171      0.98665793
C      -0.54321690     -0.35972854      0.14365103
C       0.87330515     -0.95234214      0.07164264
C       1.76940694      0.25184515     -0.09702853
C       1.07968351      1.39257384     -0.06249272
C      -0.38084085      1.15165007      0.07503767
C      -1.02728459      0.38646053     -1.06548903
H      -1.21043673     -1.07495343      1.92922489
H      -1.85682843     -1.83625150      0.63443295
H       1.10763475     -1.49637544      0.99490786
H       0.97972661     -1.67223565     -0.74580225
H       2.84013084      0.17399709     -0.22890384
H       1.50882672      2.38199182     -0.14802116
H      -1.00456143      1.80751825      0.66651681
H      -2.10100845      0.47265761     -1.15928168
H      -0.47874307      0.30741403     -1.99525256
