17
b3lypvtz=-194387.11617451
O       2.84717169      0.59257008      0.58025607
C       2.02419674     -0.37538488     -0.05415584
C       0.55583434     -0.09820791      0.02157003
C      -0.05133260      0.87426356      0.69902661
C      -1.54486173      0.87545992      0.49192613
C      -1.80499115     -0.48962460     -0.19073696
C      -0.43711955     -0.92827671     -0.76406785
H       2.67101771      1.44561387      0.17059353
H       2.24863146     -1.32407210      0.44292582
H       2.31370924     -0.50850583     -1.10712037
H       0.45957932      1.60163656      1.31556825
H      -2.10201712      0.98535532      1.42526739
H      -1.84835877      1.71430156     -0.14536654
H      -2.58409216     -0.44150436     -0.95115232
H      -2.13051174     -1.21190306      0.55939262
H      -0.26561781     -2.00305394     -0.65884521
H      -0.35123786     -0.70846748     -1.83498136
