12
b3lypvtz=-202921.41470425
O       0.21695097      2.21969501     -1.18959072
C       0.28689383      1.12038366     -0.68782785
C       1.42305256      0.48923612      0.01515600
C       1.07168577     -0.75787402      0.35724976
N      -0.20721990     -1.16407707     -0.11765967
C      -1.29958799     -0.47840902      0.60028601
C      -0.78573954      0.05212044     -0.70053346
H       2.35063501      0.99044718      0.24065629
H       1.62704354     -1.46691929      0.95486377
H      -2.25103913     -0.99420898      0.60470342
H      -1.03857870      0.04766977      1.51031362
H      -1.39409641     -0.05796381     -1.58761717
