17
b3lypvtz=-215275.76015697
C      -1.82981102     -1.49679974     -0.45982845
C      -1.37229622     -0.53233197      0.64586393
C      -0.56119900      0.60579187      0.09999897
O      -1.31205514      1.72040080     -0.14230453
N       0.67408765      0.63899602     -0.18936626
N       1.44687849     -0.51440567     -0.03428161
C       2.86507507     -0.18770056      0.03999160
H      -2.45363026     -0.97635534     -1.18658788
H      -2.41238616     -2.31606493     -0.03697013
H      -0.97377950     -1.91875471     -0.98561183
H      -2.23520578     -0.11630780      1.16550136
H      -0.78672198     -1.07707362      1.39136062
H      -0.71719885      2.37141809     -0.54047365
H       1.16222523     -1.05673102      0.77710928
H       3.17031148      0.27935206     -0.89523155
H       3.42528223     -1.11515255      0.16196721
H       3.11722778      0.49337408      0.86224590
