14
b3lypvtz=-180399.05104898
N      -2.59107389      0.29004026     -0.01596903
C      -1.53373666     -0.55541586      0.01069689
C      -0.21654488     -0.21488298      0.00595406
C       0.87581615     -1.17476374      0.00030554
C       2.04572753     -0.48028216     -0.00274551
C       1.74085286      0.93836574     -0.00022195
C       0.38815178      1.10453194      0.00537622
H      -3.51948039     -0.05485522      0.13914224
H      -2.45067498      1.28041610      0.07721510
H      -1.80511646     -1.60481687      0.01298612
H       0.75200705     -2.24732689      0.00145635
H       3.03981244     -0.90098722     -0.00513632
H       2.47594316      1.72968964     -0.00141970
H      -0.13604470      2.04857325      0.00528900
