15
b3lypvtz=-191244.76833248
C      -1.56107926     -1.40018086     -0.00001129
C      -0.25282717     -0.68733047      0.00008891
N       0.93024282     -1.26363385      0.00004686
C       1.84641836     -0.24114949      0.00002335
C       1.20987389      0.96644729     -0.00003102
N      -0.13956839      0.67765820      0.00002461
C      -1.22414114      1.64011479      0.00000995
H      -2.16113266     -1.15796868     -0.88136702
H      -2.16120440     -1.15835236      0.88139310
H      -1.36767242     -2.46980098     -0.00016324
H       2.90638261     -0.43263498      0.00009171
H       1.57214000      1.97934418     -0.00016513
H      -1.85008869      1.52590766     -0.88615958
H      -0.80717894      2.64410866     -0.00007700
H      -1.85001562      1.52603789      0.88624778
