14
b3lypvtz=-201312.0022196
C      -2.48049950     -0.49539179     -0.00000008
C      -1.07832511     -0.00538957      0.00000304
C      -0.57123236      1.24087784      0.00000582
N       0.82012642      1.13975863     -0.00000975
H       1.48176092      1.89262366      0.00002411
C       1.22703142     -0.18198714     -0.00000371
N       2.44971069     -0.56587572      0.00000541
N       0.01980476     -0.87759502     -0.00000925
H      -0.03426168     -1.87883717      0.00001390
H      -2.69586059     -1.10626634      0.88169517
H      -3.17169455      0.34599247      0.00001459
H      -2.69586534     -1.10624042     -0.88171212
H      -1.07808586      2.18804051     -0.00000059
H       2.52759078     -1.57695196      0.00000747
