18
b3lypvtz=-205201.14053354
C      -2.15118304     -1.07222070     -0.08882477
C      -0.90525822     -0.26676820     -0.40768847
C      -0.98919114      1.26926449     -0.35328398
O       0.14038440      1.34603592      0.55046534
C       0.16088810     -0.10127711      0.69843059
C       1.55075725     -0.67144907      0.49666359
N       2.09314065     -0.29133363     -0.80651335
H      -2.61552797     -0.73621996      0.84130568
H      -2.89427497     -0.98092718     -0.88409444
H      -1.91811157     -2.13402917      0.01834810
H      -0.44318324     -0.60762525     -1.33267307
H      -1.89990805      1.65667357      0.11557306
H      -0.80171713      1.81159300     -1.28212954
H      -0.20567644     -0.38835236      1.69192633
H       1.48144932     -1.76234164      0.54786460
H       2.17124969     -0.34999125      1.34625586
H       3.00715737     -0.70194421     -0.94762760
H       2.20760901      0.71514077     -0.83702693
