17
b3lypvtz=-217686.47523177
O       1.90076329     -0.26573993     -1.06541976
C       1.84774779     -0.10053490      0.34940558
C       0.40348115      0.07208691      0.79140416
C      -0.56511275     -0.99905708      0.24619307
C      -1.80024116     -0.18577318     -0.16385340
C      -1.17202523      1.14435484     -0.56671213
O      -0.10438098      1.34387159      0.35980339
H       2.78745999     -0.05852473     -1.36921300
H       2.27463911     -0.97404093      0.86144819
H       2.40825396      0.78615834      0.66019180
H       0.40096497      0.08085501      1.88709004
H      -0.12747760     -1.48669436     -0.62362718
H      -0.78545193     -1.76245163      0.99123266
H      -2.36805630     -0.65016560     -0.96987592
H      -2.46966218     -0.04031955      0.68617346
H      -1.84887725      1.99510940     -0.48393423
H      -0.78192488      1.10086581     -1.59020672
