14
b3lypvtz=-203681.61806567
C      -1.39129215     -0.42524707     -0.49592065
C      -0.54815641      0.16439709      0.64471686
C      -0.75490055      1.61014940      0.76962159
N      -0.90557783      2.74759484      0.85430155
C       0.95198249     -0.11647333      0.54659951
C       1.65748850     -0.35742848     -0.71162518
O       1.32627165     -1.43750825      0.17645465
H      -2.45109622     -0.31596221     -0.27286772
H      -1.16158042     -1.48366318     -0.60402040
H      -1.19385258      0.08039800     -1.43989230
H      -0.88388549     -0.28257762      1.58652521
H       1.52303190      0.29356757      1.37538528
H       2.71425344     -0.12379060     -0.77864618
H       1.11731369     -0.35365616     -1.65073223
