16
b3lypvtz=-202047.75763622
N       3.61125373      0.18850876     -0.19896017
C       2.34426892     -0.35860455     -0.16154750
C       1.20998435      0.28421984      0.16476359
N      -0.00703875     -0.37233662      0.07069292
C      -1.08423112      0.23707683      0.36995927
C      -2.42164188     -0.43506765      0.30025930
N      -3.35903145      0.38343743     -0.48104575
H       4.37599614     -0.45052469     -0.06061415
H       3.73955104      1.06406937      0.28362313
H       2.27630629     -1.39005943     -0.48354120
H       1.23301936      1.32518703      0.49688750
H      -1.09533048      1.28979177      0.68162342
H      -2.82991397     -0.51064969      1.31450304
H      -2.27381044     -1.45544390     -0.07084627
H      -4.29896565      0.01422712     -0.40659981
H      -3.10841810      0.35710837     -1.46267331
