15
b3lypvtz=-214520.69546435
C      -1.38394504     -0.66842448     -0.23014962
C       0.06920609     -0.96438556      0.19069096
C       0.74929611      0.34863607     -0.12267325
C      -0.18814274      1.29084715     -0.29565846
N      -1.51074695      0.79977836     -0.13866047
N       2.13538889      0.49075831      0.04141899
O       0.20996522     -1.34454985      1.56451804
H      -2.09231871     -1.18099327      0.41964003
H      -1.53485087     -1.00998794     -1.26025543
H       0.47773529     -1.81239645     -0.36259919
H      -0.03516478      2.35053825     -0.44337371
H      -2.16465492      1.17984776     -0.80948624
H       2.66073480     -0.28787871     -0.33175093
H       2.50105297      1.35879524     -0.32285332
H       0.10644464     -0.55058488      2.10119258
