14
b3lypvtz=-231962.39039246
F       2.48225017     -1.13775491      0.26207340
C       1.68473804     -0.06570226      0.66282394
C       0.72198528      0.26516750     -0.45512151
O      -0.06082370      1.46081445     -0.16666658
C      -1.26838071      0.75152047     -0.49426857
C      -1.50855834     -0.35601285      0.46907158
C      -0.54258320     -0.55727921     -0.67915783
H       2.33346694      0.78902285      0.86620528
H       1.16711360     -0.35134582      1.57913084
H       1.28075157      0.40285444     -1.38453144
H      -2.01561064      1.26812650     -1.07906539
H      -1.16155085     -0.25936159      1.49063861
H      -2.44675606     -0.88322128      0.35313119
H      -0.66584210     -1.32672829     -1.42426352
