19
b3lypvtz=-192731.14438825
C      -3.61677427     -0.06775065      0.15045102
N      -2.28823479      0.48217839     -0.07726578
C      -1.24024750     -0.53424416     -0.14541420
C       0.09415206      0.08873484     -0.42270383
C       1.16869394     -0.04038041      0.34854206
C       2.50336817      0.58341923      0.07173332
N       3.55275283     -0.44533674      0.04975795
H      -4.33695276      0.74445639      0.25227187
H      -3.69281043     -0.70914242      1.04307369
H      -3.91600733     -0.66812908     -0.71155138
H      -2.05828491      1.14631798      0.65218844
H      -1.50316156     -1.21072620     -0.96722436
H      -1.18099744     -1.15534148      0.76326568
H       0.14508697      0.69915979     -1.32048129
H       1.12049604     -0.65253545      1.24526273
H       2.44138474      1.18356432     -0.84615196
H       2.75062522      1.27311499      0.88534265
H       4.46650678     -0.01805789     -0.04411502
H       3.42617824     -1.05304546     -0.75147159
