15
b3lypvtz=-191241.9677075
C      -2.58052572     -0.49099844     -0.01238620
C      -1.13994766     -0.08351627     -0.00058028
C      -0.65357276      1.20038086      0.01335228
N       0.72296771      1.13728184      0.01240576
H       1.35430756      1.91106654      0.11650542
C       1.12591374     -0.17113087     -0.00661586
N       2.50581138     -0.46724095      0.03703155
C      -0.00644909     -0.95294097     -0.01941927
H      -2.83066483     -1.06934835     -0.90564435
H      -3.23545290      0.38093893      0.00876958
H      -2.83021989     -1.11227743      0.85158475
H      -1.17126231      2.14404494      0.01787790
H       2.67140863     -1.37297323      0.45288823
H       2.93561301     -0.45921421     -0.88104860
H      -0.02355387     -2.03053339     -0.05484091
