13
b3lypvtz=-242079.41689278
C      -2.51405676     -0.76935616      0.00065611
C      -1.31670345     -0.18664377      0.00146918
F      -1.30675629      1.20083594      0.00014758
C      -0.00919982     -0.77586433      0.00757443
C       1.18119649     -0.12001214     -0.00268551
N       2.40048726     -0.74984477     -0.06747782
O       1.34110708      1.21845395      0.00250392
H      -2.59052390     -1.84525716     -0.00019923
H      -3.41590714     -0.17821211     -0.00063859
H       0.01465593     -1.85592958      0.00532172
H       2.42091131     -1.71710928      0.20581596
H       3.17598825     -0.20339713      0.27138460
H       0.46391305      1.62799754      0.00471466
