19
b3lypvtz=-192725.18518805
C       2.43966814     -0.66142649     -0.22484463
N       1.47881254      0.39190263      0.08363266
C       0.22569762     -0.08529511      0.60093325
C      -0.83015059     -0.53735156     -0.38531334
C      -1.70379365     -1.73087353     -0.08556810
C      -0.99253082      0.76829522      0.36622371
N      -0.82142901      2.06794630     -0.23293931
H       2.66080863     -1.32479812      0.62454501
H       3.37514142     -0.21405976     -0.56213551
H       2.05278674     -1.28012035     -1.03579656
H       1.88609808      1.05690556      0.73018643
H       0.26033935     -0.63863309      1.54131670
H      -0.53818947     -0.41663770     -1.42283160
H      -1.96776069     -1.76814031      0.97345820
H      -2.63652836     -1.69342180     -0.65341473
H      -1.20230646     -2.67067184     -0.33076813
H      -1.72698928      0.76239737      1.16456084
H       0.03750173      2.07349422     -0.77125452
H      -1.58408091      2.27534136     -0.86709635
