19
b3lypvtz=-192714.93719906
C       1.80827108     -1.20173674     -0.01238429
N       1.04120347      0.00000047     -0.30429751
C       1.80827039      1.20173802     -0.01238389
C      -0.23168341     -0.00000008      0.38607140
C      -1.27738751      1.05449114     -0.04262963
N      -2.31891757     -0.00000043      0.03147235
C      -1.27738703     -1.05449144     -0.04263044
H       2.08025114     -1.28829173      1.05422934
H       1.23616715     -2.08789629     -0.28828192
H       2.72946007     -1.20045242     -0.59634681
H       1.23616591      2.08789732     -0.28828114
H       2.72945934      1.20045447     -0.59634650
H       2.08025052      1.28829277      1.05422974
H      -0.10464096     -0.00000048      1.48116824
H      -1.44845032      1.90590659      0.61805879
H      -1.06876440      1.41315470     -1.05645717
H      -2.98499872     -0.00000029     -0.73045258
H      -1.06876372     -1.41315409     -1.05645827
H      -1.44844943     -1.90590750      0.61805730
