15
b3lypvtz=-191178.83791381
C       2.52436998     -0.20000884     -0.36306465
N       1.36461260      0.28012565     -0.48563413
C       0.28286606     -0.31586619      0.26126759
C      -0.95600132     -0.76957662     -0.58535246
C      -1.81375525      0.24239919      0.17908646
C      -0.63197215      0.69032946      0.98784110
N      -1.28154284      1.58867575      0.05323140
H       3.34958372      0.24148341     -0.91728377
H       2.75751387     -1.05474253      0.28450053
H       0.62360095     -1.11652484      0.92918991
H      -1.21252403     -1.81011097     -0.39117832
H      -0.88207725     -0.61135249     -1.66221145
H      -2.84710100      0.12331648      0.47254456
H      -0.54846450      0.98352786      2.02540344
H      -0.72910884      1.72832466     -0.78834021
