16
b3lypvtz=-202060.72949951
C      -3.10535686     -0.26613197     -0.01077729
C      -1.62824450     -0.37671041      0.15239899
N      -0.84165575      0.55152622     -0.20519192
C       0.55528933      0.32879852     -0.05763781
N       1.21598902      1.51759196      0.15687845
N       1.06824915     -0.83500153     -0.12619248
C       2.50629177     -0.95196339      0.00047100
H      -3.37918740      0.68761826     -0.45687233
H      -3.47281085     -1.08156806     -0.64054258
H      -3.60309521     -0.37448123      0.95698931
H      -1.23177630     -1.30101333      0.58258869
H       2.20849942      1.54704254      0.00153741
H       0.70517158      2.34787542     -0.09071704
H       2.86851087     -0.62319699      0.98371090
H       2.79823790     -1.99322057     -0.12872891
H       3.04576482     -0.36670544     -0.75955138
