12
b3lypvtz=-202894.63863654
C      -3.32387520     -0.76021291     -0.00014017
C      -2.32826017     -0.09441757     -0.00012657
C      -1.14189849      0.74547121     -0.00011109
O       0.02661375     -0.07210231     -0.00006757
C       1.20426914      0.70471802     -0.00005055
C       2.36681715     -0.18250127     -0.00000483
N       3.30391119     -0.84756587      0.00003136
H      -4.20036910     -1.35931838     -0.00015104
H      -1.14735980      1.39551277      0.88522528
H      -1.14731518      1.39548237     -0.88547005
H       1.25956137      1.35129403     -0.88613085
H       1.25951534      1.35132491      0.88601009
