14
b3lypvtz=-224570.8596505
N      -3.24881797     -0.62523368     -0.09499157
C      -2.06362889     -0.09470418      0.34421997
N      -1.19277736      0.38729399     -0.43948465
C      -0.01653507      0.99618940      0.15605927
C       1.22904189      0.33207376     -0.35183713
N       2.09703300     -0.08836114      0.46904753
O       3.19954481     -0.66372282     -0.19338366
H      -3.71951979     -1.27999697      0.50486154
H      -3.30890832     -0.81442993     -1.08322694
H      -1.96432724     -0.08545334      1.43631848
H       0.01309732      2.05120703     -0.14262522
H      -0.01127871      0.96394845      1.25313563
H       1.36009154      0.21780863     -1.42672754
H       3.76067479     -0.94156921      0.53726328
