14
b3lypvtz=-226999.25203741
C       1.37794396      1.68064906     -0.05395768
C       0.52860054      0.43307026     -0.26040954
C       1.33964165     -0.79724422     -0.13653148
N       1.96500002     -1.75775990     -0.03737593
O      -0.51155237      0.44236168      0.71162201
C      -1.56156951     -0.47521157      0.46828705
O      -2.30838444     -0.15904542     -0.67644957
H       2.19941101      1.70640106     -0.76880507
H       1.78698823      1.69492389      0.95498813
H       0.75460574      2.56213779     -0.19542581
H       0.09430739      0.43658508     -1.26438443
H      -1.17161837     -1.48189284      0.30420473
H      -2.16442959     -0.44841365      1.37698871
H      -2.79775226      0.65389778     -0.50964710
