12
b3lypvtz=-226247.40698295
C       0.09346818     -1.19367230     -0.55410297
C      -0.74326286     -0.48138820      0.46368437
C      -0.32734454      0.78134194      0.59638195
C       0.79638103      0.98533583     -0.31152691
N       1.46648698      2.04068920     -0.48359133
O       1.02884832     -0.20685034     -0.98709543
O      -1.72947507     -1.17582990      1.05754113
H      -0.50031065     -1.54369529     -1.40316610
H       0.62376635     -2.04881996     -0.12567052
H      -0.70914318      1.55727099      1.23866578
H       2.19587034      1.90106075     -1.18016720
H      -2.19528491     -0.61544271      1.68904723
