17
b3lypvtz=-215248.20066251
C      -2.23172995      0.31929465     -0.26390390
N      -0.81858685      0.05478693     -0.48086698
C      -0.56357867     -1.36945142     -0.64518841
C       0.01185203      0.65104329      0.56170447
C       1.44918870      0.72766256      0.14919794
N       2.35028774      0.23294244      0.89085841
O       3.63219994      0.43293519      0.35083365
H      -2.40701060      1.39456578     -0.21384729
H      -2.81062282     -0.07906681     -1.09797946
H      -2.61944625     -0.13567932      0.66420159
H      -1.12768868     -1.74492148     -1.49952572
H      -0.85152747     -1.95828547      0.24268195
H       0.49480841     -1.54420168     -0.83396196
H      -0.05796457      0.12181042      1.52535597
H      -0.34913755      1.67109881      0.72481507
H       1.69634279      1.21744357     -0.79206986
H       4.20281380      0.00792252      0.99899451
