20
b3lypvtz=-182675.53675821
C      -3.57506918     -0.59139478     -0.08990346
C      -2.42749333      0.41734961     -0.10932089
C      -1.05914152     -0.22369793      0.12746484
C       0.09460642      0.78957153      0.09604084
C       1.42341514      0.15999734      0.38496762
N       2.37561180      0.16228463     -0.44343268
C       3.61869084     -0.48251102     -0.07062621
H      -3.44486245     -1.35198701     -0.86289672
H      -3.63276709     -1.10600237      0.87194059
H      -4.53614210     -0.10454596     -0.26315647
H      -2.41679765      0.94043491     -1.07031780
H      -2.60163899      1.18468560      0.65151788
H      -0.88014194     -0.99140949     -0.63137693
H      -1.06484375     -0.74231482      1.09224952
H      -0.09583582      1.56463967      0.84797348
H       0.14877286      1.28058807     -0.87647699
H       1.52491684     -0.32402017      1.37038457
H       3.60091578     -0.92993885      0.93283967
H       3.85243432     -1.26084674     -0.80014174
H       4.42984883      0.24727777     -0.11713010
