15
b3lypvtz=-193584.96068603
C      -0.36484417      2.70633147      0.26078118
C      -0.20275572      1.51853575      0.29967035
C       0.01855340      0.07095314      0.30861007
C       1.18854902     -0.29504646     -0.57782523
C       2.25043918     -0.97748443     -0.17429223
C      -1.24594685     -0.69402106     -0.12290481
O      -2.25907147     -0.45600820      0.84173953
H      -0.51340842      3.75674993      0.23956148
H       0.24079816     -0.24124776      1.33328234
H       1.11847044      0.04015003     -1.60785611
H       3.05652430     -1.22085618     -0.85366314
H       2.35738555     -1.31147007      0.85106430
H      -1.55194884     -0.35598820     -1.11889110
H      -0.99617242     -1.75911400     -0.18050021
H      -3.09647215     -0.78158395      0.50122357
