17
b3lypvtz=-215288.87155327
C       2.67542682     -0.47181338      0.88125007
O       1.29873409     -0.65860436      0.53507382
C       0.79885263      0.15075037     -0.42446618
N       1.52738541      1.02570168     -0.98273379
C      -0.65673422     -0.15774649     -0.67255380
C      -1.54358891      0.09394012      0.55193496
N      -2.93244904     -0.25357855      0.24118300
H       2.84745088      0.54105646      1.24405593
H       3.31590582     -0.64309124      0.01664897
H       2.88164779     -1.19965597      1.66159725
H       0.99774768      1.54433071     -1.67584437
H      -0.75877594     -1.20635891     -0.95923655
H      -1.00237284      0.44830643     -1.51218316
H      -1.20788080     -0.54723712      1.36658056
H      -1.40935837      1.13300149      0.88418003
H      -3.32939573      0.41395797     -0.41068282
H      -3.50259528     -0.21295919      1.07734603
