14
b3lypvtz=-201286.24155635
C       1.56613833     -1.64100424      0.09462483
C       0.83329568     -0.52490192     -0.00102041
C       1.49901220      0.79195172      0.15121630
N       1.09243772      1.93326333     -0.22217287
N      -0.52720587     -0.55127673     -0.35459896
C      -1.52993860      0.16188408      0.28991121
N      -2.78374477      0.04206620      0.14094738
H       2.62868395     -1.58090353      0.27842619
H       1.13772489     -2.62508282     -0.03909054
H       2.47987946      0.73305049      0.62410661
H       0.17662915      1.87881384     -0.67090468
H      -0.83404994     -1.37084418     -0.85738690
H      -1.15358325      0.90250527      0.99126157
H      -3.02720596     -0.68097052     -0.53868672
