15
b3lypvtz=-214528.79958605
N       2.52368147     -0.31244470      0.04296101
C       1.41882188      0.55130848     -0.36468845
C       0.19674736      0.30337062      0.49755747
C      -1.03700426      1.16493425      0.13885969
N      -2.06736180      0.20936535     -0.30530310
C      -1.54911318     -0.93609148     -0.19344781
O      -0.28016151     -1.06473072      0.26761972
H       3.34974182     -0.12248254     -0.51071280
H       2.27718606     -1.28270242     -0.11433355
H       1.12082002      0.44444526     -1.41855558
H       1.72114637      1.59234019     -0.22072341
H       0.47351471      0.35966074      1.54970049
H      -0.82412136      1.87382697     -0.66487889
H      -1.41033423      1.73675344      0.98916176
H      -2.03694935     -1.87102344     -0.43684054
