16
b3lypvtz=-227751.23830033
C       2.74862542     -0.12050989     -0.20626109
N       1.53908557     -0.57846200      0.45621101
C       0.32221166     -0.38118001     -0.18142269
C      -0.84178327     -0.17163612      0.44540729
C      -2.17012947     -0.09218760     -0.21919781
O      -2.89071588      1.08361731      0.19930273
O      -0.86118295     -0.07987540      1.82775228
H       3.61944405     -0.46076408      0.35347939
H       2.81100444      0.97086263     -0.31559644
H       2.80633928     -0.56015729     -1.20353446
H       1.49735855     -0.35040615      1.43907997
H       0.33051854     -0.48469691     -1.25874511
H      -2.81675697     -0.91887499      0.08805490
H      -2.05801583     -0.13267326     -1.30608764
H      -2.38703856      1.85179359     -0.09305184
H      -1.64896459      0.42515015      2.06533493
