14
b3lypvtz=-180387.27511207
C       2.57403539      0.44618959     -0.09243228
C       1.60094278     -0.40785785     -0.37695959
C       0.51707877     -0.82295842      0.58238871
C      -0.87192846     -0.44879974      0.09972536
C      -1.80063752     -1.33572352     -0.26237458
C      -1.16710767      0.95374829      0.03892596
N      -1.38133413      2.08618074      0.01347010
H       3.32826594      0.70699915     -0.82274675
H       2.65103799      0.91812252      0.87992144
H       1.54861051     -0.85283471     -1.36607635
H       0.69700932     -0.36314770      1.55679710
H       0.53761055     -1.90665452      0.72188299
H      -1.59686080     -2.39716384     -0.21625267
H      -2.77736766     -1.02737700     -0.60693544
