18
b3lypvtz=-205197.66836047
C       2.35645478     -0.72098575     -0.19733691
C       1.17026088      0.18693505     -0.47655704
O       1.27474586      1.33072455      0.35712294
C      -0.16131752     -0.51318373     -0.25621458
C      -0.79378789     -0.62114870      1.08437878
N      -1.27823987      0.34937413      0.10236829
C      -2.56714952      0.08210167     -0.51774711
H       2.33898084     -1.06194487      0.83864488
H       2.34163911     -1.59298364     -0.85387597
H       3.28794476     -0.18053975     -0.36489827
H       1.20375645      0.49826667     -1.53202686
H       0.38880697      1.72279266      0.37912521
H      -0.37133186     -1.32197637     -0.95250822
H      -0.30037465     -0.20122505      1.95109098
H      -1.41334153     -1.49163016      1.27536586
H      -3.36209552      0.48550029      0.11087605
H      -2.75611334     -0.99005316     -0.66903822
H      -2.61292795      0.57995618     -1.48724281
