18
b3lypvtz=-202805.5028234
C      -3.03115349     -0.40582172     -0.07672517
N      -1.61824576     -0.31870803     -0.42266590
C      -0.85167482      0.54333881      0.47058220
C       0.62718192      0.51405206      0.12731539
N       1.29015542      1.51774604     -0.27885488
C       1.32878648     -0.82071609      0.31751367
N       2.71108552     -0.90820963     -0.12051932
H      -3.13897671     -0.89750049      0.89205241
H      -3.54968574     -1.01478889     -0.81715567
H      -3.53869245      0.56923624     -0.01501870
H      -1.51749002      0.00959324     -1.37572937
H      -0.98640490      0.16303794      1.48917592
H      -1.20047281      1.58944271      0.47350131
H       0.69850658      2.34768277     -0.34027769
H       1.27594472     -1.05992675      1.38728448
H       0.73488780     -1.59255690     -0.17562768
H       2.74636319     -0.84297118     -1.13186212
H       3.21141005     -0.08843313      0.20690012
