12
b3lypvtz=-226214.24697899
N       2.36516894     -0.92349755     -0.07522902
C       1.11202344     -0.81720180      0.05399437
C       0.41453746      0.53208024      0.04725178
O       1.05180950      1.55667728     -0.05424751
C      -1.07549721      0.57156580      0.15245174
C      -1.90428001     -0.31085757     -0.69300070
O      -1.73407047     -0.58131926      0.68941547
H       2.77075113      0.01530139     -0.17427082
H       0.50359635     -1.70782651      0.18763334
H      -1.47815162      1.53168280      0.45614929
H      -1.42907020     -1.01299604     -1.37054099
H      -2.88718230      0.04004621     -0.98773395
