17
b3lypvtz=-217674.42273888
C       3.21341213     -0.67891624     -0.00000054
O       2.25668544      0.35725719      0.00000017
C       0.92369865     -0.11933139     -0.00000031
C      -0.00602843      1.08154388      0.00000003
C      -1.47546496      0.76546757     -0.00000084
C      -2.02153961     -0.44674635     -0.00000033
O      -3.35744448     -0.73412214     -0.00000109
H       3.12089283     -1.31495218      0.88985740
H       4.19761112     -0.21360601     -0.00000011
H       3.12089296     -1.31495080     -0.88985949
H       0.74915185     -0.74597605     -0.88614707
H       0.74915158     -0.74597689      0.88614580
H       0.23770350      1.69804369      0.87135783
H       0.23770424      1.69804463     -0.87135689
H      -2.13950318      1.62707800     -0.00000195
H      -1.44452586     -1.36142425      0.00000090
H      -3.85966576      0.08895234     -0.00000249
