15
b3lypvtz=-216908.43409151
C       2.86679226      0.15650790      0.09723520
C       1.78122574     -0.27821479     -0.16919551
C       0.47061431     -0.81145726     -0.51264405
C      -0.73134198      0.00459119      0.01241439
C      -0.72910931      1.45020261     -0.45790678
O      -0.67921518     -0.09799355      1.42154281
O      -1.93364060     -0.56918393     -0.47632663
H       3.82566841      0.53917855      0.34221227
H       0.37034121     -0.88333593     -1.59709721
H       0.37581208     -1.82440378     -0.11057312
H      -0.76541675      1.49920399     -1.54559111
H      -1.61148372      1.95965259     -0.06786292
H       0.16639893      1.95737794     -0.10646232
H      -1.37530261      0.46008425      1.78641710
H      -2.00898278     -1.45268879     -0.09684012
