13
b3lypvtz=-237087.07058843
N      -0.56456245     -0.33368937     -1.82115161
C      -0.18156326     -0.03878619     -0.65035926
C      -0.66124926     -0.70740666      0.63015213
O      -1.56000164     -1.76550273      0.34795629
N       0.76189500      0.99683020     -0.54074809
C       1.33513069      1.54350269      0.57568594
O       1.13188631      1.21386044      1.72177651
H      -1.26119656     -1.07461010     -1.76862064
H       0.19345816     -1.03439545      1.22368891
H      -1.19390745      0.02141298      1.24064097
H      -1.05452096     -2.56429910      0.17087604
H       1.02034908      1.38994224     -1.43523850
H       2.03418234      2.35314105      0.30534131
