13
b3lypvtz=-213775.43299055
N       2.72041146     -0.36558155     -0.62857306
C       1.62910022      0.38837431     -0.39746487
N       0.45202923     -0.11456820     -0.30956975
C      -0.59254553      0.74966624     -0.07178107
C      -1.88197995      0.37047658      0.04582422
C      -2.34512229     -1.00735520     -0.06397029
O      -3.51150186     -1.33595695      0.04468705
H       2.61864686     -1.36089601     -0.73426352
H       3.63345995      0.04294339     -0.68936419
H       1.83150317      1.45991879     -0.29256631
H      -0.35350731      1.81286649      0.02723008
H      -2.63989026      1.11962553      0.23393528
H      -1.56060369     -1.75961343     -0.25642357
