15
b3lypvtz=-216928.1732868
C      -3.20474832      0.22760447      0.00005580
C      -1.70753035      0.25180926      0.00010533
C      -0.94406459     -0.84840968     -0.00013023
C       0.50563828     -0.97240456     -0.00012007
C       1.42372996      0.00731137      0.00003042
O       1.12863100      1.32101087      0.00025211
O       2.77501797     -0.17712859     -0.00001911
H      -3.61314328      0.74107860      0.87646091
H      -3.59091086     -0.79308135     -0.00062338
H      -3.61307968      0.74222980     -0.87570160
H      -1.24117619      1.22903507      0.00038858
H      -1.45947092     -1.80556887     -0.00037505
H       0.90068687     -1.98080795     -0.00025842
H       1.95691520      1.81593113      0.00015867
H       2.97041690     -1.11992757     -0.00023097
