11
b3lypvtz=-264612.50105795
N       1.12217794      1.31607678      0.93990168
C       1.28407154      0.34713259      0.15896655
O       2.45853270     -0.13320708     -0.29318850
O       0.26234630     -0.38475961     -0.36299046
C      -1.02742914     -0.03760092     -0.00969119
C      -2.03003504     -0.73903697     -0.50841878
F      -3.30022313     -0.43153679     -0.18779053
H       2.00942050      1.72406842      1.21195625
H       2.28942184     -0.88219337     -0.87933965
H      -1.12913455      0.79950747      0.66290963
H      -1.93924897     -1.57855050     -1.18231500
