13
b3lypvtz=-190428.96751872
C      -3.36200631     -0.73539746     -0.25000369
C      -2.43131792      0.00390501     -0.09395239
C      -1.28007381      0.87904555      0.10241756
C      -0.02444807      0.10903315      0.41668539
N       1.06928260      0.35271148     -0.17738088
C       2.19233642     -0.41156250      0.20666768
N       3.34825291     -0.26409813     -0.27888324
H      -4.19088204     -1.38237233     -0.39553132
H      -1.10076607      1.49907974     -0.77675147
H      -1.48465874      1.55739235      0.94000279
H      -0.11191510     -0.66401682      1.18983539
H       2.03120250     -1.17607677      0.97419910
H       3.33140763      0.48206772     -0.97797292
