14
b3lypvtz=-203682.81785123
C      -2.59999036     -0.81250701      0.01754269
C      -1.94197537      0.34417561      0.00601485
C      -0.46804135      0.52388094     -0.00852927
O       0.00179312      1.63969082     -0.04956989
C       0.43936212     -0.70951552      0.09764052
N       1.72468403     -0.47018937     -0.51699082
C       2.70134620     -0.20666532      0.23357346
H      -3.68163503     -0.83715669      0.03538047
H      -2.09986381     -1.77149781      0.00799054
H      -2.48055839      1.28490279      0.01131646
H       0.50914315     -0.94348130      1.17261739
H      -0.02611061     -1.56225538     -0.39560817
H       3.67217706     -0.00002112     -0.21074722
H       2.63567423     -0.17216264      1.32811396
