17
b3lypvtz=-194365.751121
C       3.19226160     -0.37617297     -0.12276980
C       1.78451521     -0.03975883      0.03659002
C       0.62537176      0.24539301      0.18212673
C      -0.78754112      0.61259998      0.31978626
O      -1.02099708      1.95975650     -0.10804435
C      -1.72559457     -0.36642982     -0.40463149
C      -1.69553825     -1.78546788      0.15848346
H       3.32162911     -1.24889389     -0.76588882
H       3.74296140      0.45326491     -0.57107641
H       3.65360072     -0.59802933      0.84159354
H      -1.04755195      0.61614511      1.38226839
H      -0.59586161      2.07517970     -0.96449511
H      -1.46373815     -0.37593690     -1.46633981
H      -2.73108293      0.05176047     -0.32685452
H      -1.97271900     -1.79648898      1.21505794
H      -0.70343664     -2.22899560      0.06959631
H      -2.39878450     -2.42711847     -0.37369834
