14
b3lypvtz=-180390.52224142
C       2.01263935      0.45426551     -0.60510419
C       0.96937605     -0.15109217     -0.03825792
C       1.03202094     -1.55842022      0.49135704
C      -0.33420299      0.55809215      0.08801297
C      -0.46246301      1.83625079      0.46393871
C      -1.51883255     -0.20487505     -0.19376832
N      -2.45534928     -0.83604004     -0.42500524
H       2.97262637     -0.03982027     -0.67570669
H       1.93665270      1.44637942     -1.02840614
H       0.77304251     -1.59069595      1.55256490
H       0.31960046     -2.20411494     -0.02662418
H       2.02913427     -1.97610127      0.36494318
H      -1.43122108      2.31123691      0.52337141
H       0.40700928      2.42148113      0.72726247
