15
b3lypvtz=-214480.25295566
C      -2.52773766      0.67910535     -0.01228850
C      -1.57479312     -0.51458146      0.13281232
C      -0.21999358     -0.25819818     -0.45679358
C       0.90166621     -0.27409148      0.24761871
O       2.11865128     -0.02284587     -0.35224779
N       3.16011604     -0.09034951      0.57863219
N       4.21999639      0.13748959      0.01376044
H      -2.13962246      1.55424254      0.51095451
H      -2.65933005      0.95136734     -1.06134749
H      -3.51189179      0.44542417      0.39741262
H      -1.47240935     -0.77863880      1.18829154
H      -2.02345344     -1.38419089     -0.35911659
H      -0.16409648     -0.03595801     -1.51747087
H       0.96309021     -0.48010863      1.30817603
H       4.92980779      0.07123383      0.74930646
