14
b3lypvtz=-201234.61069807
C      -1.17207379      1.61174296     -0.03849057
C      -0.41596923      0.51570992     -0.02871886
N      -0.94281816     -0.78311397      0.26111147
N      -2.10346559     -0.99317237     -0.12409129
N       0.98992936      0.59549283     -0.19032752
C       1.71657840     -0.58559481     -0.67574822
C       1.84926397     -0.16124388      0.73525016
H      -0.71663448      2.57922730     -0.18473154
H      -2.23828147      1.54139394      0.11255809
H      -2.35254670     -1.94054197      0.19516229
H       2.49796401     -0.36414977     -1.39135793
H       1.15087916     -1.48904123     -0.86623795
H       2.72852236      0.37557482      1.06760655
H       1.36097017     -0.77642479      1.48019730
