13
b3lypvtz=-211332.29965936
C      -3.43785270     -0.20119080      0.00007160
C      -2.24739691      0.39336992      0.00003129
N      -1.03651817     -0.28151422     -0.00003371
N       0.10643937      0.37963969      0.00003750
N       1.12029749     -0.36918944      0.00003414
C       2.31645944      0.37390326      0.00012567
N       3.46618079     -0.15426253     -0.00006366
H      -4.33679047      0.39436447     -0.00016060
H      -3.54869235     -1.27745092      0.00032542
H      -2.12613988      1.46735458      0.00003845
H      -0.98770560     -1.29724873     -0.00003799
H       2.20592212      1.45899941      0.00009215
H       3.37903887     -1.17309268     -0.00009926
