9
b3lypvtz=-289728.82301497
N      -1.75793868     -1.00539909     -0.06875274
C      -1.36919430      0.15433922     -0.28037703
F      -2.13706547      1.24595479     -0.41805639
O      -0.10373423      0.60250555     -0.42275266
N       0.85585756     -0.42947834     -0.30571977
C       1.99771925      0.08113930     -0.45031006
F       3.04843228     -0.71859909     -0.37637954
H      -2.76937448     -1.05362869     -0.00581423
H       2.23539809      1.12316637     -0.63293758
