17
b3lypvtz=-171060.5428032
C      -2.49178320     -0.53303617     -0.80538729
C      -1.57332836     -0.00321311     -0.00392688
C      -1.54542069      1.45571743      0.35072909
C      -0.49566193     -0.86920915      0.62766858
C       0.86723102     -0.47893729      0.26444095
C       1.98462482     -0.15847529     -0.04076890
C       3.34134407      0.21977009     -0.41322654
H      -2.49362557     -1.58774942     -1.05000456
H      -3.27418620      0.07206854     -1.24575559
H      -1.64160183      1.59475749      1.43186154
H      -0.59447105      1.90765867      0.06046347
H      -2.35233268      2.00015135     -0.13768506
H      -0.66091483     -1.91258374      0.35039026
H      -0.59574833     -0.81859646      1.71881096
H       3.36596747      0.66936459     -1.40813036
H       3.75856608      0.94343754      0.29019866
H       4.00159724     -0.65006807     -0.42584535
