16
b3lypvtz=-204422.57711715
O       2.66257641     -0.10604811     -0.00374074
C       1.35624509      0.27687928      0.37882297
C       0.40900436      0.86768085     -0.70442147
C      -0.65905940     -0.10489622     -0.20386414
C      -2.03078249      0.19364702      0.25186926
N      -1.78895933     -0.58126363     -0.98550348
C       0.39770769     -0.92092595      0.54629429
H       3.20373530      0.68403662     -0.09802922
H       1.37956336      0.90161184      1.27685459
H       0.18822133      1.93412295     -0.66553816
H       0.75354772      0.59731081     -1.70374991
H      -2.40290768     -0.32762756      1.12691999
H      -2.45758893      1.17689836      0.09266936
H      -1.94438841     -1.57060809     -0.81790370
H       0.75882529     -1.76256775     -0.04829960
H       0.17425968     -1.25815040      1.55791996
