16
b3lypvtz=-204467.86940811
C      -2.16118154     -0.47673759      0.00006929
C      -0.65618855     -0.58013911      0.00007272
N      -0.04271892     -1.71985704      0.00009842
C       0.12689332      0.64908975      0.00002978
C      -0.54214313      2.00002298      0.00002646
C       1.48617788      0.57025607     -0.00004811
O       2.19775781     -0.54298369     -0.00007397
H      -2.61790889     -1.46551708      0.00013152
H      -2.51406033      0.06998968     -0.87661311
H      -2.51407180      0.07011265      0.87666886
H      -0.67427092     -2.51403316      0.00010992
H      -1.17424311      2.15454941     -0.87880705
H      -1.17412598      2.15460626      0.87893315
H       0.20663180      2.79249324     -0.00005681
H       2.09300790      1.47126520     -0.00011286
H       1.51853546     -1.29836757     -0.00001324
