12
b3lypvtz=-200537.79559521
N       2.92945235     -0.98524635     -0.00313591
C       1.93323681     -0.40633786     -0.00262277
C       0.69758914      0.36817156     -0.00186312
N       0.72971305      1.65217315     -0.00273138
C      -0.51964276     -0.42107122      0.00152055
C      -1.73736003      0.16716056      0.01638106
N      -2.93198299     -0.46490070      0.00081799
H       1.68352612      2.00271658     -0.00180820
H      -0.42160202     -1.49848261     -0.00902406
H      -1.78814234      1.24920858      0.02945718
H      -3.78431173      0.05206173      0.10394336
H      -2.99102258     -1.46680642      0.04923031
