17
b3lypvtz=-191976.40682887
C       3.26401255     -0.03485911     -0.34769165
C       2.10967924      0.02424993      0.31930087
N       0.83447982      0.03747888     -0.22975521
C      -0.27254035     -0.56705531      0.51056574
C      -1.60492893     -0.03480319      0.04009484
C      -2.60142284     -0.85473254     -0.31227362
N      -1.69380637      1.35149949      0.09698578
H       3.30227480     -0.13777323     -1.42512951
H       4.20230320      0.04250471      0.17931739
H       2.11009971      0.11904827      1.40029869
H       0.81553662     -0.18486550     -1.21611974
H      -0.27641305     -1.65937097      0.44423611
H      -0.13592795     -0.30131146      1.56244923
H      -3.56938573     -0.48025609     -0.61891178
H      -2.47259490     -1.92536984     -0.26841549
H      -2.46270430      1.75892470     -0.41140769
H      -0.81701751      1.81794725     -0.08567799
