14
b3lypvtz=-201298.68474291
N       2.31085554     -0.16585720     -0.15449278
C       1.05618319     -0.00861757      0.01829069
C       0.19614832     -1.22253698      0.31989929
N      -1.11905186     -1.09061850     -0.30271579
C      -1.76606022      0.12448374     -0.07558233
C      -1.04759948      1.23927290      0.08739840
N       0.35818419      1.17748081      0.03481892
H       2.78799513      0.72281969     -0.30993942
H       0.70996814     -2.09746363     -0.06748394
H       0.12852258     -1.31829165      1.41533475
H      -1.70047489     -1.90557826     -0.19741660
H      -2.84491174      0.13496628     -0.07025155
H      -1.48621664      2.21038475      0.24209984
H       0.87536474      2.02871363     -0.10547749
