15
b3lypvtz=-170296.17984463
C      -1.31989598     -0.63903442      0.43785200
C      -1.56209470      0.80889317     -0.09006299
C      -0.10333563      0.73428865     -0.47686511
C       1.06304666      1.23558266     -0.02190043
C       2.00248248      0.12187984      0.12293196
C       1.37084188     -1.05803348     -0.08146053
C      -0.02976983     -0.76682035     -0.49525691
H      -2.09537281     -1.37699192      0.24216944
H      -1.04724332     -0.64398138      1.48962544
H      -1.84801243      1.56570693      0.63768384
H      -2.25334848      0.83386559     -0.93336146
H       1.24790970      2.24288824      0.32397521
H       3.04711218      0.23690887      0.37881644
H       1.84113982     -2.03032370     -0.10970877
H      -0.31355952     -1.26482872     -1.42453813
