17
b3lypvtz=-171080.7246876
C       1.10481973      1.83169746     -0.12693712
C       0.22303741      0.84101902     -0.10136886
C      -1.24998768      0.97904828      0.26100936
C      -1.77843869     -0.42135935      0.09811613
C      -0.83433094     -1.27385582     -0.28482338
C       0.51984089     -0.62220980     -0.43783130
C       1.60240233     -1.26080786      0.44662741
H       0.82645247      2.84813915      0.12297556
H       2.13990473      1.66826234     -0.40065262
H      -1.38738113      1.35541200      1.28036471
H      -1.76286063      1.68985733     -0.39550024
H      -2.81444668     -0.67866884      0.27369716
H      -0.98706762     -2.33030391     -0.46451729
H       0.85609376     -0.69896109     -1.47904649
H       2.55941659     -0.75301803      0.32057288
H       1.32445199     -1.20382559      1.50009443
H       1.74341347     -2.31240330      0.18790266
