13
b3lypvtz=-192826.53409886
C      -1.20394208      0.87922348      0.13450393
C      -0.95305552     -0.57191174     -0.28084109
C       0.34705176     -0.23138415     -0.91902081
C       0.32774933      1.07589736     -0.02350736
C       0.92744343      0.16270844      1.05898569
O       1.74062509      0.33016886      1.92500381
C       0.34047894     -1.03905324      0.39985634
H      -1.76155550      1.41394799     -0.63384159
H      -1.63362588      1.07986714      1.11854756
H      -1.67413477     -1.31208985     -0.59567261
H       0.83519959     -0.48913091     -1.84366110
H       0.77611871      2.03598471     -0.24909567
H       0.57484691     -2.08292807      0.53774292
