13
b3lypvtz=-237091.75665348
C       0.71153997      1.84413266      0.00010456
N      -0.01942345      0.58111855      0.00000764
C      -1.38499799      0.61286854      0.00008021
O      -2.12885646     -0.35521094      0.00001177
C       0.74965476     -0.64067765      0.00002925
N       2.01167134     -0.69223812     -0.00006779
O       0.02634575     -1.75589051      0.00016464
H      -0.00195095      2.66460096      0.00022952
H       1.33712386      1.92928086     -0.88859883
H       1.33720211      1.92905485      0.88877068
H      -1.78548639      1.63582750     -0.00013016
H       2.45479001      0.21603550     -0.00015600
H      -0.93325155     -1.53076721      0.00014251
