14
b3lypvtz=-255283.34139811
O      -0.56849519      1.39818311      1.32909959
C      -0.47350513      0.46373798      0.26192792
C      -1.68542082     -0.44860308      0.23069954
F      -1.78099341     -1.10766178      1.46701943
C       0.82010649     -0.32040053      0.33961459
C       2.02048133      0.13003833     -0.35969601
O       1.23211345     -0.95111988     -0.87779604
H      -0.81973400      0.91167856      2.12304569
H      -0.46875845      1.04300677     -0.66470460
H      -2.60181515      0.12743676      0.09997182
H      -1.59512133     -1.20484160     -0.54953266
H       0.93597298     -0.93701533      1.22732870
H       1.98586209      1.04731061     -0.93871545
H       2.99920715     -0.15184991      0.01313749
