14
b3lypvtz=-203687.42208277
O      -1.16357556      2.29863946      0.00867189
C      -0.70740571      1.18349093     -0.03092953
C      -1.43572230     -0.08868942      0.41338469
N      -0.72063682     -1.19070679     -0.23989651
C       0.59288655     -0.72699460     -0.65242111
C       1.48513534     -0.07580545      0.35510584
C       0.61783632      0.77601729     -0.57283949
H      -1.42385114     -0.12843246      1.51018750
H      -2.47985968     -0.03801757      0.10207671
H      -0.66133045     -2.01411408      0.34426573
H       1.02926582     -1.24529848     -1.49568186
H       2.54697371     -0.03791452      0.15405288
H       1.22531916     -0.12676925      1.40434526
H       1.09486477      1.41469494     -1.30022201
