20
b3lypvtz=-182676.01488278
C       2.68906666      0.42164723      0.21914598
N       1.61055137     -0.54377015      0.38761248
C       0.35178162     -0.16171180     -0.24106797
C      -0.39226865      0.96778889      0.48460119
C      -1.81830582      0.86758241     -0.07098492
C      -2.06634267     -0.65077209     -0.26362661
C      -0.66614012     -1.31457955     -0.23029674
H       3.61423797      0.00697825      0.62019212
H       2.46880022      1.33068785      0.78057397
H       2.86813569      0.71306188     -0.82851446
H       1.90512239     -1.44088098      0.02147290
H       0.51148463      0.16161631     -1.28613170
H      -0.37406440      0.75684669      1.55765027
H       0.05228365      1.95165437      0.33042481
H      -1.87588613      1.38179534     -1.03310734
H      -2.55717086      1.33441314      0.58045797
H      -2.58823898     -0.84950969     -1.19987379
H      -2.69575873     -1.04775151      0.53326685
H      -0.52701716     -1.87671901      0.69578757
H      -0.51007069     -2.00827757     -1.05788256
