15
b3lypvtz=-214517.17366155
C      -0.25864705      1.93563635      0.40270060
O      -0.04208355      0.91242064     -0.57766562
C       0.00042585     -0.37104395     -0.05342279
C      -1.25124442     -1.07376248      0.16624572
N      -2.42915777     -0.67733957     -0.12260142
C       1.20156773     -0.94840695      0.15385846
N       2.40774609     -0.32449255     -0.03918430
H       0.56705276      1.97168911      1.11827569
H      -0.31259144      2.87799870     -0.13903349
H      -1.19317230      1.77349884      0.94393359
H      -1.14776915     -2.05854885      0.62844244
H      -2.38432258      0.24106933     -0.56967822
H       1.24280710     -1.96398319      0.52443643
H       2.38138542      0.49954817     -0.61992070
H       3.21185131     -0.91041560     -0.18240939
