14
b3lypvtz=-203634.18207058
O      -2.42227795     -0.65674398      0.09586323
C      -1.33503904     -0.19598636     -0.04944554
N      -0.88510477      1.16524235     -0.17498922
C       0.46777071      0.73375795      0.28750776
C       1.96040441      0.51188578     -0.13847047
C       1.64827591     -1.02467273      0.16160594
C       0.17624954     -0.62832627     -0.23575785
H      -1.41551741      1.90823668      0.26383105
H       0.47631922      0.71912197      1.38167809
H       2.72613281      1.00002410      0.46210282
H       2.15064207      0.66803062     -1.19860295
H       1.78295772     -1.26516294      1.21383543
H       2.14282578     -1.76653156     -0.46003677
H       0.24440198     -0.54349563     -1.32572052
