17
b3lypvtz=-191977.77521368
C       2.76374772     -0.15101816      0.05498418
N       1.41943044     -0.66175815     -0.09192158
C       0.30803523      0.14738017     -0.04322527
N       0.30332806      1.42632158      0.01082151
C      -0.98409576     -0.60055297     -0.07766414
C      -2.19813289      0.05332561     -0.69274769
C      -2.13077365     -0.12458361      0.78852976
H       3.46569908     -0.98040584     -0.00313388
H       3.00553136      0.54829464     -0.74899050
H       2.91526950      0.36429047      1.01008964
H       1.27877250     -1.64483910      0.05692322
H       1.23909734      1.81921847      0.05161948
H      -0.89429963     -1.67096237     -0.21373189
H      -2.86742829     -0.57586612     -1.26291998
H      -2.04298574      1.05076396     -1.07697419
H      -1.93424551      0.75592760      1.38270289
H      -2.75224177     -0.87768818      1.25316143
