16
b3lypvtz=-209437.25396108
C       1.78446382      1.89946523      0.04177485
C       1.24162290      0.84002264     -0.11269669
C       0.58795728     -0.45886216     -0.27809536
C       1.60120157     -1.60760108     -0.13694168
C      -0.58726946     -0.62718523      0.70883049
C      -1.71945186      0.35379506      0.49721298
F      -2.30090244      0.14553386     -0.75995936
H       2.26717715      2.83627457      0.16694700
H       0.17129454     -0.49358562     -1.28906045
H       1.11181069     -2.56576171     -0.31788878
H       2.03085356     -1.62401137      0.86569354
H       2.41613981     -1.49703643     -0.85132744
H      -0.22177502     -0.51634669      1.73366588
H      -0.98091712     -1.64193317      0.61273980
H      -1.37017211      1.38711319      0.52730204
H      -2.50369932      0.21541491      1.24370018
