16
b3lypvtz=-181097.98205104
C       2.06498627      0.42659441     -0.03618066
C       1.02858825     -0.56927306     -0.49243034
C       0.73297217      0.92958260     -0.46801529
N      -0.22615534      0.81560059      0.64659988
C      -1.61608111      0.60593599      0.11123420
C      -1.46080720     -0.92918056      0.11700457
C      -0.01354546     -0.71835157      0.59822561
H       2.87372621      0.59310471     -0.73559608
H       2.34389776      0.49189346      1.00987644
H       1.20175031     -1.26095245     -1.30684517
H       0.58819441      1.64928775     -1.26320126
H      -2.36253580      0.99009596      0.80532584
H      -1.77982680      1.06856667     -0.86371356
H      -1.56270226     -1.43850210     -0.84078735
H      -2.09276386     -1.43264486      0.84636340
H       0.28040243     -1.22205752      1.52043976
