17
b3lypvtz=-191970.83605704
C       2.52338442     -0.36709413      0.44131918
N       1.42868366     -0.63779581     -0.12856407
C       0.38531835      0.30435326     -0.15081160
C       0.53749046      1.52135655     -0.67712776
C      -0.93142587     -0.25399967      0.39009267
C      -1.45842521     -1.37256425     -0.51465345
N      -1.99187891      0.72071918      0.61500181
H       2.70504597      0.57838656      0.96281785
H       3.32924231     -1.09677465      0.42001716
H      -0.29234017      2.20875881     -0.74690432
H       1.48244629      1.83476486     -1.09824053
H      -0.69654904     -0.69902860      1.36344707
H      -2.33937398     -1.82710083     -0.06266251
H      -0.69800964     -2.13400868     -0.67303122
H      -1.74004202     -0.96678750     -1.48945709
H      -2.32744517      1.09700366     -0.26440077
H      -1.66180745      1.50134824      1.16982459
