13
b3lypvtz=-213744.68619977
C       3.24638108     -0.41143033     -0.43955688
C       2.21036645      0.02016538     -0.01740920
C       0.95592709      0.57334415      0.49568457
N      -0.11368297     -0.41758042      0.47213357
C      -1.25005941     -0.08793922      0.03528328
N      -2.26239072     -1.01878339     -0.17548027
O      -1.60688518      1.18693996     -0.31164950
H       4.16017226     -0.80069978     -0.81248405
H       0.70900115      1.47834427     -0.06853830
H       1.11770760      0.88694082      1.53273630
H      -3.16047495     -0.75365063      0.20556871
H      -1.98280658     -1.94057487      0.12700509
H      -2.33310982      1.14621707     -0.94520532
