21
b3lypvtz=-193494.43111788
C       0.19682591      1.95731427     -0.07259354
C      -0.25420398      0.52317308     -0.38955850
C      -1.63732968      0.22518103      0.21883027
N      -2.21299747     -1.07231472     -0.12574830
N       0.70396465     -0.53501993     -0.02106585
C       1.18768459     -0.49286363      1.35099400
C       1.79893122     -0.68637739     -0.96353526
H      -0.49191236      2.67703590     -0.51845723
H       0.21772443      2.14559658      1.00234992
H       1.19168880      2.16529816     -0.46928002
H      -0.36688717      0.43894405     -1.47496055
H      -2.33208725      1.00833011     -0.09285626
H      -1.57763617      0.29627609      1.30899331
H      -1.49020193     -1.77769442     -0.02252069
H      -2.47766522     -1.08384112     -1.10477182
H       0.35667756     -0.40840619      2.05006362
H       1.71197631     -1.42367893      1.57429207
H       1.88559377      0.33622586      1.54908376
H       2.50361554      0.16246348     -0.96906473
H       1.40703558     -0.80651659     -1.97421617
H       2.37125188     -1.58265571     -0.71660101
