17
b3lypvtz=-191959.70848174
C       2.34315000      1.59653332      1.53409230
N       1.64282017      0.36339890      1.23251869
C       0.94359009      0.31271526      0.18251913
C       0.17544559     -0.91422737     -0.21434824
C      -1.30920409     -0.64213676     -0.32621132
C      -2.16949230     -1.36426341     -1.29017828
N      -1.76039546      0.02467583     -1.55885262
H       3.41334111      1.39209027      1.60886317
H       2.02273092      1.96094608      2.51256840
H       2.18406388      2.38860345      0.78978320
H       0.85050569      1.17433670     -0.49482379
H       0.53244312     -1.25675942     -1.19054945
H       0.36627383     -1.70098041      0.51696404
H      -1.78271601     -0.33325320      0.60062059
H      -3.19821216     -1.56064136     -1.01307083
H      -1.72934178     -2.10240378     -1.94967479
H      -2.52500260      0.66136589     -1.36352260
