16
b3lypvtz=-181120.87352135
C      -3.37914780     -0.43432799      0.01412593
C      -2.29049127      0.06760376      0.01085432
C      -0.96338174      0.67193047      0.02520172
N       0.07643756     -0.33210603     -0.12426659
C       1.41381386      0.01858298     -0.01151465
C       1.86384300      1.28195443      0.01424018
C       2.33865441     -1.16713742      0.02714543
H      -4.34568315     -0.87286288      0.01135087
H      -0.83839190      1.24970692      0.95303416
H      -0.88490460      1.39107522     -0.79657563
H      -0.16812153     -1.23880601      0.23982535
H       1.20958774      2.14029842     -0.01196381
H       2.92497933      1.47501248      0.04081100
H       2.21848381     -1.78045311     -0.86886748
H       3.37592543     -0.84847166      0.09382978
H       2.12249886     -1.80383258      0.89024442
