18
b3lypvtz=-202809.61836939
N      -0.91704849      1.59039742     -0.49364273
C      -0.12660462      0.84027818      0.48938443
C       1.37007690      0.85513767      0.10095630
N       1.76055993     -0.56105416      0.03266486
C       0.58061742     -1.28529809     -0.42712168
C      -0.52067800     -0.66554998      0.44702721
N      -1.90769771     -0.86670175      0.04783291
H      -0.59684237      2.55050471     -0.54216669
H      -1.88532536      1.61394676     -0.19281034
H      -0.26093138      1.22249487      1.50726728
H       1.98770117      1.38258076      0.83020209
H       1.46693121      1.36982994     -0.86479385
H       2.57189513     -0.70698135     -0.55270976
H       0.33720087     -1.11681337     -1.48892896
H       0.69238961     -2.35954920     -0.26730641
H      -0.40790065     -1.06635475      1.45539630
H      -2.02439834     -0.64033778     -0.93290733
H      -2.18154631     -1.83248789      0.17527235
