14
b3lypvtz=-257889.67204061
F       1.69666704      1.20125533     -0.22458147
C       1.24523255      0.02231431      0.28827116
F       2.24991381     -0.89848287      0.13562903
C       0.01866587     -0.45743261     -0.46030699
N      -1.11578083      0.40698463     -0.18848176
C      -1.99659532      0.00625225      0.90572385
C      -2.42796940     -0.13603523     -0.50849083
H       1.07816647      0.16524378      1.35812798
H       0.24863851     -0.42726808     -1.52717685
H      -0.15905808     -1.50579938     -0.17704198
H      -1.75754725     -0.90631683      1.44396368
H      -2.38071870      0.81154759      1.51844426
H      -3.13238764      0.56301469     -0.94084588
H      -2.47609402     -1.14298857     -0.91183123
