13
b3lypvtz=-242083.06352603
C      -1.35034445      0.80827218      0.33070042
C      -0.65312967     -0.50850235      0.20893265
C       0.57535235     -0.78891388     -0.26031995
C       1.58757537      0.09938708     -0.78316876
N       2.71079260     -0.27728311     -1.20150267
F       1.24772624      1.43369079     -0.80079263
O      -1.38456895     -1.57648828      0.64035409
H      -2.27969989      0.78514833     -0.24629881
H      -1.61658433      0.98700382      1.37686741
H      -0.74594091      1.63456764     -0.01898262
H       0.87896042     -1.82600062     -0.25697257
H       3.27213703      0.50706137     -1.52496687
H      -2.24227583     -1.27794297      0.95840432
