11
b3lypvtz=-238687.26990996
C      -0.35851583      0.20170479      0.75834917
C       0.82834442      0.18889619     -0.20960583
C      -0.25580552     -0.81685493     -0.35086733
O      -1.36691189     -0.20358089     -1.05728084
C      -1.55623314      0.69142420      0.00160024
O      -2.42855410      1.48247302      0.12593324
O       2.00179965     -0.20815581      0.42608378
H      -0.21419502      0.13124169      1.82346108
H       0.91963242      0.97473313     -0.95475979
H      -0.18223031     -1.89170241     -0.32735047
H       2.61266929     -0.55017897     -0.23556324
