15
b3lypvtz=-193606.77707573
C      -1.14657484      1.33027842      0.47122423
C      -0.21843439      0.26269768     -0.05173810
C      -0.75324927     -0.95154587     -0.80162364
C      -0.07909401     -1.13658429      0.52317413
O       1.29558671     -1.49507477      0.53404258
C       1.97146122     -0.44933033     -0.03940539
C       1.20247900      0.58564995     -0.37663849
H      -2.09966770      0.90339728      0.78704875
H      -0.70886400      1.84979898      1.32601565
H      -1.35993044      2.07293496     -0.30138435
H      -0.24339392     -1.27193264     -1.69986784
H      -1.82570665     -1.09650163     -0.80068622
H      -0.61433594     -1.51697890      1.38114008
H       3.03397358     -0.59938803     -0.14463987
H       1.54575066      1.51257921     -0.80666151
