14
b3lypvtz=-224611.13297636
C       2.23903167     -0.95140177     -0.36246828
C       1.26464158     -0.13699428      0.06222466
N       1.42630708      1.22572946      0.32022663
N      -0.03950552     -0.60493670      0.28896432
C      -1.22468794      0.02962627     -0.05648819
N      -1.45416710      1.18796275     -0.51050253
O      -2.25174918     -0.82719322      0.19355648
H       3.26515315     -0.61769559     -0.39519532
H       2.02125243     -1.95495080     -0.69358146
H       1.00226494      1.53755988      1.18348265
H       2.38103025      1.53807223      0.23449613
H      -0.12526666     -1.60099455      0.40536646
H      -0.59911526      1.70988383     -0.66502814
H      -3.05038646     -0.34978949     -0.06678341
