17
b3lypvtz=-171033.75916773
C      -2.77510138     -0.35685168     -0.19723295
C      -1.61464293      0.25846876      0.00858654
C      -0.29386350     -0.41613737     -0.09033942
C       0.82560695     -0.18693508      0.98697553
C       1.83119575     -0.73442440     -0.06253205
C       0.91560317      0.25454299     -0.83447874
C       1.07758788      1.21868170      0.37361950
H      -2.82214273     -1.40892442     -0.45471843
H      -3.71852671      0.16680593     -0.11658214
H      -1.62908564      1.31262536      0.26362978
H      -0.43120933     -1.46787071     -0.35208652
H       0.76689738     -0.44612106      2.04317865
H       1.74371345     -1.78965021     -0.32270123
H       2.87152457     -0.43430345      0.06152571
H       0.96187826      0.50784599     -1.89268266
H       2.07515576      1.63227623      0.52309724
H       0.31884707      1.98322940      0.52128118
