16
b3lypvtz=-204429.3548093289
C      -1.85103293      0.86143241      0.21365093
C      -1.25171972     -0.43405151     -0.33832318
C       0.16448091     -0.25112890     -0.83918122
C       1.29917714     -0.16592846      0.16323803
C       1.74848198     -1.32712335     -0.31871828
O       0.75884479     -1.52421827     -1.30092318
N       1.54651837      0.71015651      1.22001257
H      -2.87800699      0.70132607      0.54348079
H      -1.27928024      1.22716723      1.06718843
H      -1.86899085      1.64745715     -0.54511769
H      -1.85897630     -0.80508761     -1.16846331
H      -1.24879554     -1.20977948      0.42988315
H       0.21225524      0.47510307     -1.65546641
H       2.52826640     -2.05286528     -0.14985808
H       1.60312838      1.67920822      0.93321088
H       2.37564936      0.46833218      1.74538658
