19
b3lypvtz=-171821.52974826
C       2.12292244     -0.27542161     -0.05217132
C       0.96174750     -0.65849267      0.89972619
C      -0.00000010      0.16447782     -0.00000200
C       1.23487608      0.86864968     -0.60453039
C      -0.96174724     -0.65851977     -0.89970594
C      -2.12292295     -0.27541955      0.05217895
C      -1.23487649      0.86866761      0.60450509
H       3.07392982     -0.00093842      0.40240486
H       2.30757572     -1.04522996     -0.80134966
H       0.74152396     -1.71838757      1.03423854
H       1.07864204     -0.19900977      1.88322067
H       1.43884139      1.81786998     -0.10449228
H       1.23071520      1.03725252     -1.68242233
H      -1.07864068     -0.19906700     -1.88321461
H      -0.74152393     -1.71841889     -1.03418556
H      -2.30757781     -1.04520559      0.80137983
H      -3.07392957     -0.00094909     -0.40240650
H      -1.23071621      1.03730180      1.68239214
H      -1.43884117      1.81787348      0.10443931
