18
b3lypvtz=-205222.44659489
C       2.50284885      0.35319337      0.56218830
C       1.44426492      0.47086308     -0.54394260
C       0.19761594     -0.30108045     -0.24135684
O       0.42638266     -1.64566373     -0.21037242
C      -1.03675199      0.17736563     -0.00799926
C      -1.45996067      1.61509737      0.00216968
N      -2.04353840     -0.82994711      0.26056117
H       3.41110301      0.88974461      0.28369119
H       2.76258686     -0.68983795      0.73846467
H       2.13559250      0.77326349      1.50013584
H       1.20553544      1.51763636     -0.72091976
H       1.85872500      0.07716803     -1.47692243
H      -0.44346172     -2.03278244      0.00318339
H      -0.64049348      2.30036001     -0.20603697
H      -1.88168631      1.89439489      0.97439476
H      -2.24313145      1.80099233     -0.74168699
H      -2.79640270     -0.79316592     -0.41932083
H      -2.46883746     -0.69591358      1.17236909
