15
b3lypvtz=-191189.45602672
C       0.71873847      0.05070409     -0.96309648
C       1.51345564     -0.11127038      0.33606568
N       2.72146602     -0.21017593      0.67258004
C       0.24896818     -0.16604245      1.18704638
C      -0.55663520     -0.12615794     -0.12422919
C      -1.78251496     -0.87524773     -0.45320382
N      -1.78958399      0.60257795     -0.38077612
H       0.80722918      1.04199754     -1.41249384
H       0.90992000     -0.70498348     -1.72655783
H       3.33722969     -0.14984741     -0.14034661
H       0.12313556      0.71904011      1.81589869
H       0.14394418     -1.05670745      1.80754996
H      -1.92137852     -1.28060727     -1.44835618
H      -2.26430467     -1.43745921      0.33877814
H      -2.20966958      0.90949527      0.49114117
