13
b3lypvtz=-213753.46715946
N      -3.09649417     -0.25040725     -0.45508308
N      -1.93424742      0.14003995      0.08820141
C      -0.83498505     -0.19356103     -0.49239293
C       0.42163118      0.16158265      0.10385073
C       1.63041656     -0.12288436     -0.41652548
C       2.85876396      0.28353915      0.25614163
O       3.97744179      0.06353702     -0.15705618
H      -3.10861262     -0.49729311     -1.43982907
H      -3.88249383      0.29129876     -0.13771928
H      -0.83299503     -0.74764250     -1.43589439
H       0.35759406      0.70222235      1.04331245
H       1.73959878     -0.66094801     -1.35157260
H       2.70428179      0.83061638      1.21036680
