14
b3lypvtz=-227001.01339375
C       1.02194547      1.12640167      0.81683020
C       1.06936025     -0.15110348      0.01904977
O       2.23429818     -0.34595302     -0.66334269
N       0.20036554     -1.05669558     -0.09893895
C      -1.08439057     -0.94817700      0.52615119
C      -2.03401873      0.06153670     -0.08984226
O      -1.71666514      0.95246843     -0.83185913
H       0.92896875      1.97754599      0.14041557
H       1.93738851      1.24544406      1.40118700
H       0.17584507      1.15325794      1.49791409
H       2.82404670      0.40073555     -0.51995256
H      -1.58679079     -1.92000522      0.48636069
H      -1.04955150     -0.69228844      1.59962969
H      -3.09144773     -0.07232858      0.22381838
