18
b3lypvtz=-205209.87215217
C       1.83098657     -0.60325202     -0.71282174
C       0.64983621     -0.04695187      0.05756304
O       0.58892321     -0.62345005      1.35085191
C       0.48254351      1.49392961      0.14208900
C      -1.04342699      1.31334897     -0.06374048
C      -0.77588652     -0.10863853     -0.60191849
N      -1.63131297     -1.17531050     -0.09607541
H       1.74426848     -1.68773312     -0.81196618
H       1.89965155     -0.16614166     -1.71130518
H       2.75991154     -0.39155423     -0.17998833
H      -0.21233913     -1.17723001      1.34628165
H       0.95654083      2.01041233     -0.69317145
H       0.80946990      1.94102767      1.07828670
H      -1.55755269      2.00703425     -0.72770225
H      -1.57097494      1.27494619      0.88963511
H      -0.69272370     -0.10892498     -1.69248876
H      -2.57505871     -0.85040151      0.06827693
H      -1.67986017     -1.96554553     -0.72583906
