20
b3lypvtz=-182678.64516404
C       2.65398921     -0.50069020      0.31514287
C       1.17066757     -0.71531947      0.19094923
C       0.30957406      0.23486337     -0.19789852
N       0.74259192      1.51051909     -0.58613067
C      -1.19226623      0.04626304     -0.31242429
C      -1.63990595     -1.41302038     -0.40358869
C      -1.92711951      0.75908232      0.83915324
H       2.90072839      0.34132080      0.97361224
H       3.12582522     -0.29351216     -0.65173928
H       3.14501510     -1.37958268      0.73143052
H       0.78918263     -1.70046558      0.41049008
H       0.05932112      2.24436016     -0.48497192
H       1.64069560      1.79204429     -0.22423780
H      -1.48891047      0.53733646     -1.24699954
H      -2.71639337     -1.46256399     -0.57581134
H      -1.43277166     -1.95420029      0.52128473
H      -1.14023798     -1.93397064     -1.22016286
H      -1.64809568      1.81117955      0.92044013
H      -1.69250765      0.28049979      1.79177705
H      -3.00804731      0.71605954      0.69307680
