17
b3lypvtz=-191966.15140389
C      -2.35006928      0.28665951      0.65734570
N      -1.26852547      0.74580494     -0.20536711
C      -0.20175552     -0.21800590     -0.37245256
C       0.96905447      0.23583719     -1.28758617
C       1.92863878     -0.19763766     -0.19453019
N       3.16543312     -0.42778700     -0.23656833
C       0.79721816     -0.34103506      0.81992526
H      -1.97509826      0.15094486      1.67365781
H      -3.13390261      1.04317954      0.69501685
H      -2.80179616     -0.66589681      0.33959410
H      -1.63749782      1.00257761     -1.11334616
H      -0.56466564     -1.21483285     -0.66507786
H       0.96943206      1.32118181     -1.41387864
H       1.08332812     -0.24318229     -2.25888094
H       3.50934707     -0.75451995      0.66835764
H       0.72933774      0.52934668      1.47667285
H       0.78142123     -1.25263462      1.41721774
