15
b3lypvtz=-216926.03679902
C      -2.07843235      0.76900728     -0.23803170
C      -1.36277254     -0.38484806      0.38031164
O      -2.26592440     -1.26509356      0.92686550
C      -0.03677885     -0.59372452      0.43051013
C       0.99874498      0.26028291     -0.10844052
C       2.30269714     -0.01479525     -0.01959205
O       3.25147798      0.82436441     -0.54549821
H      -2.68419891      1.28040897      0.51388981
H      -1.39345549      1.48653189     -0.67988465
H      -2.76150304      0.41410382     -1.01346210
H      -1.79042421     -2.00404408      1.32208094
H       0.30289529     -1.50022840      0.92814965
H       0.71873174      1.17622289     -0.61460588
H       2.67397859     -0.90950857      0.46956296
H       4.12516408      0.46122027     -0.38405554
