13
b3lypvtz=-234660.84402537
N       1.82242912      0.81000132     -0.48350292
N       2.02516610     -0.04966891      0.41232701
N       1.02286491     -0.88172794      0.63461378
C      -0.18116397     -1.00271826     -0.17774763
C      -1.32493553     -0.06546780      0.24903051
N      -1.07988998      1.24724779      0.02722044
O      -2.35306190     -0.50168551      0.73208280
H       2.68532290      1.34862186     -0.54754546
H       1.22482789     -1.56420971      1.34256261
H       0.09291019     -0.80853291     -1.21696181
H      -0.55175759     -2.01868088     -0.07640741
H      -0.17453834      1.53613483     -0.31848466
H      -1.75674981      1.92240611      0.34000174
