10
b3lypvtz=-223059.6692095
C      -2.46662109      0.30633130     -0.00044839
N      -1.55078371     -0.57545266     -0.00001388
C      -0.24033801     -0.13895820      0.00027481
N       0.26755978      1.06180587     -0.00050925
C       1.60630225      0.80092878      0.00012054
N       1.92866956     -0.46274880     -0.00007599
O       0.68781257     -1.10493465     -0.00006940
H      -3.49902944     -0.02910332      0.00004964
H      -2.26592367      1.37850312     -0.00012609
H       2.36464475      1.56755156      0.00022101
