13
b3lypvtz=-218758.0232796
C       3.60205806     -0.24490980     -0.00000494
C       2.44123277      0.41468291     -0.00000644
C       1.15382717     -0.24942471     -0.00001020
N       0.05670753      0.41143003     -0.00000459
C      -1.13748745     -0.28606324      0.00000208
C      -2.28740706      0.38653060      0.00000578
F      -3.46775099     -0.24964939      0.00000697
H       4.55051034      0.27366421     -0.00002211
H       3.63581525     -1.32797543      0.00001078
H       2.41290716      1.49808439     -0.00000456
H       1.16232300     -1.34737863     -0.00000266
H      -1.14740664     -1.37652768      0.00000189
H      -2.37153414      1.46380074     -0.00000001
