17
b3lypvtz=-191988.54062816
C      -2.86076715     -0.54547867      0.07070937
C      -1.50911953     -0.03836515     -0.30856693
N      -0.59882402      0.17858965      0.54370010
C       0.64578365      0.71164467      0.15219751
N       0.82249441      1.88181904     -0.31622677
C       1.82349524     -0.18805533      0.43374038
C       1.80775021     -1.48935667     -0.37613523
H      -3.06279640     -1.49773288     -0.42709662
H      -3.63271894      0.15204728     -0.26613057
H      -2.93502379     -0.67659840      1.14803009
H      -1.33570497      0.14374567     -1.37706005
H      -0.06830325      2.37061280     -0.41529053
H       2.72296422      0.38634305      0.21943379
H       1.81944485     -0.42511283      1.50091304
H       2.68875399     -2.08949094     -0.14664466
H       0.92723701     -2.09161416     -0.14958974
H       1.81447948     -1.28410913     -1.44811216
