17
b3lypvtz=-194358.76689663
C      -1.54284610     -1.47118390      0.10450136
C      -0.89395720     -0.20851115     -0.43053076
C      -1.28340236      1.17551579      0.17276687
C       0.21130559      1.60388820      0.12359512
C       0.55442371      0.12878098     -0.06213224
C       1.53152233     -0.67964882      0.66392451
O       1.70225262     -0.36830772     -0.73051401
H      -1.06928716     -2.36411598     -0.30929346
H      -1.46824849     -1.52288317      1.19288727
H      -2.60190343     -1.50918946     -0.15906962
H      -0.98460279     -0.17122869     -1.51963763
H      -1.98826809      1.77852920     -0.39601570
H      -1.64742281      1.07883783      1.19596678
H       0.44871716      2.17905740     -0.77209039
H       0.62348893      2.11368164      0.99332072
H       2.23600722     -0.19610741      1.33426465
H       1.32491287     -1.72307073      0.88027353
