14
b3lypvtz=-226985.68882174
N       2.24149588      0.47732226      0.59509455
C       1.61771965     -0.45517784      0.01788551
C       0.29724729     -0.33414459     -0.73372863
O      -0.22595251      0.97782495     -0.62887703
C      -1.45398037      0.91449761      0.11088158
C      -1.40219679     -0.46227821      0.76116454
O      -0.66739459     -1.22444563     -0.19916180
H       1.72696555      1.35451727      0.47161463
H       2.02706937     -1.46747604      0.04131801
H       0.43747881     -0.60013693     -1.78669897
H      -1.47688246      1.73444343      0.82791721
H      -2.29839411      1.00722001     -0.57681765
H      -2.37609331     -0.92948802      0.88842186
H      -0.87885642     -0.43595825      1.72245718
