18
b3lypvtz=-181904.49708001
C       2.24434533     -0.73887679      0.05904691
C       1.09016284      0.23728081      0.05268079
N       1.14244203      1.42108066     -0.40654801
C      -0.19817001     -0.29743088      0.62718122
C      -1.02708926     -1.13243461     -0.41264509
C      -1.99882567      0.06500857     -0.55834167
C      -1.38117259      0.69912974      0.71372030
H       3.10518792     -0.34525883     -0.48094269
H       2.54680032     -0.95533923      1.08696565
H       1.95364496     -1.69132642     -0.39007989
H       2.06761045      1.62718106     -0.78425019
H       0.02900627     -0.84137974      1.54645437
H      -1.49338223     -2.00307199      0.04783012
H      -0.50093770     -1.45658079     -1.31084266
H      -3.06295941     -0.16623433     -0.53129810
H      -1.79193614      0.65729639     -1.44814179
H      -1.10936015      1.74933339      0.65169795
H      -1.98686697      0.52805600      1.60352577
