20
b3lypvtz=-182670.65465293
C       1.33493189      0.76820561      1.18084249
C       1.04201488      0.12429138      0.05227259
C       2.00714028     -0.86214448     -0.55298613
C      -0.26303274      0.31399173     -0.70573434
C      -0.96137673      1.65204438     -0.45188456
C      -1.22400755     -0.87154575     -0.44918414
N      -1.66321842     -0.91741071      0.94552648
H       2.27117062      0.59434490      1.69691819
H       0.66588315      1.49222004      1.62390086
H       2.89420995     -0.98874811      0.06671964
H       2.32768955     -0.52794262     -1.54427816
H       1.54736486     -1.84434970     -0.69158156
H      -0.01414893      0.26223851     -1.77219867
H      -1.34114961      1.71382123      0.56630887
H      -0.28435534      2.48877072     -0.62618482
H      -1.81473878      1.76029177     -1.12418174
H      -0.74453214     -1.79939506     -0.79017870
H      -2.10938339     -0.72982029     -1.07348378
H      -2.35252767     -1.64618029      1.07971055
H      -0.88114787     -1.12520828      1.55535795
