14
b3lypvtz=-229601.64256675
C       2.71273488     -0.77420817     -0.00009829
C       1.52627335      0.16131401      0.00005631
N       1.55983028      1.43565395      0.00009845
N       0.31118146     -0.49932432      0.00001376
C      -0.91776800      0.15131558     -0.00001865
C      -2.08974753     -0.47034668      0.00003375
F      -3.24359534      0.23639831     -0.00001178
H       2.69819941     -1.41939735      0.88136363
H       2.69909903     -1.41784349     -0.88271038
H       3.64234140     -0.21070510      0.00087826
H       2.51638245      1.77199331      0.00008595
H       0.32539704     -1.50407921      0.00014716
H      -0.84951869      1.22895452     -0.00009194
H      -2.25425072     -1.53953136      0.00012078
