16
b3lypvtz=-181115.98975316
C      -0.75924392      1.94979075      0.14366014
C      -0.63532689      0.63595072      0.03021279
C      -1.61331296     -0.52723658     -0.07497361
C      -0.42324136     -1.51103605      0.16843712
C       0.52623453     -0.30973489      0.07717739
C       1.81354290     -0.17428952     -0.64900227
N       1.77396347     -0.15954878      0.82011658
H      -1.72751966      2.43335983      0.13089447
H       0.10570210      2.59362883      0.25591183
H      -2.40733798     -0.54437732      0.67103866
H      -2.06466413     -0.62371065     -1.06334211
H      -0.28469444     -2.28986951     -0.57971350
H      -0.42815293     -1.96212970      1.15969250
H       1.99308736      0.75280101     -1.18139165
H       2.27663627     -1.05306295     -1.08240599
H       1.85432762      0.78926478      1.17378765
