18
b3lypvtz=-181888.77691347
C      -2.35294833     -0.69160950      0.08207967
C      -1.45374857      0.12028419     -0.46094114
C      -0.03186052      0.31098894     -0.03522590
C       0.19199827      1.74741673      0.45220942
C       0.62762661     -0.73397075      0.90617907
N       1.83861667     -0.70457263      0.05036219
C       1.06054998     -0.11909143     -1.06580233
H      -3.36696876     -0.73758529     -0.29304619
H      -2.11766042     -1.33585896      0.92030648
H      -1.75969194      0.74931597     -1.29496234
H      -0.08101270      2.46793556     -0.32222175
H      -0.41828120      1.95501863      1.33312557
H       1.24025968      1.90210841      0.70989620
H       0.79756051     -0.42772172      1.94060583
H       0.10265972     -1.69379939      0.89921389
H       2.25268650     -1.60782536     -0.14090852
H       1.57233706      0.68030875     -1.60703339
H       0.67797944     -0.85238516     -1.78329675
