14
b3lypvtz=-203668.08301262
C       2.74076563      1.40838386     -0.02601949
C       2.09532823      0.46016921      0.32330305
C       1.31318576     -0.70061763      0.73429680
C      -0.09633341     -0.73606042      0.15449772
O      -0.83546480      0.35139409      0.73239329
C      -2.10340195      0.50008978      0.32156360
N      -2.66034552     -0.26393300     -0.51546425
H       3.30960203      2.25050471     -0.33130286
H       1.25132036     -0.73565165      1.82505723
H       1.82747326     -1.61314282      0.41939018
H      -0.08869542     -0.63351004     -0.93040904
H      -0.58961934     -1.67698565      0.40224691
H      -2.54597715      1.36202040      0.82189321
H      -3.61783769      0.02733915     -0.68501530
