13
b3lypvtz=-216138.5829037
C      -2.49315039      0.18685881     -0.06415916
O      -1.37731892     -0.71361467     -0.07768487
C      -0.14154292     -0.21176415     -0.10494411
C       0.94595696     -1.01717641     -0.11966744
C       2.23748560     -0.45482209     -0.14842208
C       3.32025535      0.07960584     -0.17302869
O      -0.08333624      1.13182394     -0.11599595
H      -3.37104396     -0.45193186     -0.04272449
H      -2.47290816      0.82269474      0.82012035
H      -2.50595741      0.80841592     -0.95867225
H       0.80455236     -2.08697968     -0.10907157
H       4.28345126      0.52367920     -0.19469196
H       0.85355647      1.38321041     -0.13561759
