15
b3lypvtz=-191216.21409746
C       1.45175936      1.55952553      0.00001217
C       0.52589918      0.37540461     -0.00000623
C       1.13846891     -0.96744149     -0.00000950
N       2.37981665     -1.24798589      0.00000164
C      -0.81227425      0.55180066     -0.00001690
C      -1.85643873     -0.47014039     -0.00000781
N      -3.11123356     -0.24589405      0.00004308
H       2.10161576      1.55297458     -0.87889265
H       2.10159083      1.55296484      0.87893530
H       0.89399290      2.49365559      0.00000962
H       0.45654773     -1.81439232     -0.00001993
H       2.95650039     -0.40528863      0.00001222
H      -1.19011229      1.57135486     -0.00002615
H      -1.55445278     -1.51524446      0.00004366
H      -3.30023410      0.76003655      0.00002548
