19
b3lypvtz=-195157.03180754
C      -1.98204656      0.25425590     -0.71114049
C      -0.66487150      0.00719862      0.01564196
O      -0.93173719     -0.37466914      1.38191751
C       0.24536216      1.25344518      0.11056217
C       1.70625198      0.75650908     -0.04443696
C       1.61834744     -0.78189922     -0.05444178
C       0.23393035     -1.05274989     -0.64871538
H      -2.58663572     -0.65646699     -0.74188145
H      -2.55960826      1.02391533     -0.19769770
H      -1.81287442      0.57561837     -1.74021569
H      -1.44022530     -1.19269096      1.37098958
H      -0.01099730      1.97162676     -0.66866336
H       0.06973872      1.73779501      1.06998759
H       2.35782520      1.12736103      0.74632050
H       2.12380750      1.10980858     -0.98955981
H       2.42747863     -1.24917891     -0.61634780
H       1.65564068     -1.16708394      0.96535877
H      -0.13277972     -2.06666191     -0.47189080
H       0.24761728     -0.89387193     -1.73133286
