16
b3lypvtz=-204435.91267239
N      -1.34406517      1.92755986      0.72198425
C      -0.70199986      1.31411605     -0.18075081
C      -0.06540602     -0.03796329     -0.14012441
C       1.37650473     -0.04509349     -0.61104788
O       2.27697526      0.55914895      0.30904017
C      -0.48196748     -1.04385658      0.89213740
C      -0.92490138     -1.22535601     -0.53329500
H      -1.38914662      1.37017440      1.57850965
H      -0.57714705      1.83550583     -1.13575856
H       1.72132100     -1.07298590     -0.72498150
H       1.44363897      0.43463001     -1.59631788
H       2.04325582      1.48712198      0.41288881
H       0.28537099     -1.69640403      1.28413261
H      -1.23539875     -0.76514256      1.61669199
H      -1.96386608     -1.03783578     -0.76650529
H      -0.46336836     -2.00361943     -1.12680355
