14
b3lypvtz=-203654.08861637
C       2.01778375      0.37055196      0.53029198
C       0.79007302     -0.12492932      0.43251725
C      -0.42158754      0.18160027     -0.40392688
C      -0.99617411     -1.17066189      0.04253982
N       0.11534886     -1.21386088      1.02752714
C      -1.08123294      1.44511726     -0.71893552
O      -0.40637306      0.66972334     -1.72696181
H       2.29702976      1.23277902     -0.05693091
H       2.76531253     -0.07043660      1.17508397
H      -0.93102237     -1.92066342     -0.74922157
H      -1.99115519     -1.17801605      0.48801590
H       0.60173521     -2.07699907      1.22157471
H      -0.59714375      2.37892266     -0.45350850
H      -2.16259416      1.47687274     -0.80806558
