14
b3lypvtz=-201308.50273731
N      -2.47374405     -0.50966925      0.06053027
C      -1.23684313     -0.19970003     -0.02602445
C      -0.01633634     -1.01371754     -0.03466979
C       1.06079747     -0.20888611      0.00850516
N       2.39789024     -0.51559749     -0.04658382
C       0.62050975      1.23496854      0.03989626
N      -0.81354751      1.12580882     -0.12225070
H      -2.58274999     -1.51843316      0.10676798
H      -0.02028631     -2.09223959     -0.06235830
H       2.65263491     -1.47205306      0.13802127
H       3.03665317      0.15155533      0.35454067
H       1.09122061      1.80788395     -0.76680060
H       0.91052698      1.70494946      0.99029570
H      -1.42985980      1.83774414      0.23093034
