15
b3lypvtz=-214502.17971801
C       1.06753960     -1.90630288     -0.17542817
C       0.16524469     -1.05220301     -0.66742940
C      -0.32268477      0.19500317     -0.07157597
C      -1.72442805      0.62092305     -0.46954001
O      -2.11762229      1.83716553      0.11015671
N       0.28486339      0.99782562      0.72106354
N       1.54599601      0.73956374      1.18503642
H       1.31165101     -2.81239597     -0.71375305
H       1.54355614     -1.76880789      0.78482328
H      -0.31220258     -1.30764453     -1.60991808
H      -1.76522408      0.69562293     -1.56570431
H      -2.42857990     -0.17322719     -0.18603701
H      -1.36504910      2.12093602      0.65282452
H       1.98330233      1.60741467      1.45733765
H       2.13363761      0.20622674      0.54814388
