17
b3lypvtz=-191988.13361297
N      -2.06908575     -0.63708513      0.09814736
C      -0.67910511     -0.52647442      0.10600690
C       0.23895579     -1.41676898     -0.28596531
C       1.63176204     -0.84321025     -0.25243650
C       1.44390579      0.48796216      0.51702098
C      -0.06028322      0.82219641      0.43530381
N      -0.33653418      1.87423830     -0.56081694
H      -2.52612149     -0.17987386      0.87448921
H      -2.41800645     -1.57623983     -0.02246797
H       0.02224151     -2.41977371     -0.63190236
H       2.03024123     -0.67914988     -1.26062867
H       2.34631916     -1.50030133      0.24963879
H       2.04398206      1.30754617      0.12375189
H       1.72794669      0.34634222      1.56005823
H      -0.43239124      1.20299899      1.39193889
H      -1.33938338      1.99553922     -0.65809546
H      -0.01147243      1.56233192     -1.47133682
