13
b3lypvtz=-213743.29698792
O       2.55467907     -0.66670432     -0.46277875
N       1.85903726      0.39903780      0.17837050
C       0.60462298      0.25599511     -0.00643273
C      -0.16541738     -0.81291473     -0.75720472
C      -1.59886790     -0.37222787     -0.57713040
C      -1.61468354      0.74825398      0.14946007
N      -0.32438100      1.14575881      0.50298137
H       3.47021576     -0.45619988     -0.25927114
H       0.05173722     -1.79961226     -0.33808595
H       0.16054248     -0.85040647     -1.80065797
H      -2.45939597     -0.88348661     -0.97250931
H      -2.45726879      1.33923814      0.47108570
H      -0.08082019      1.95336830      1.04557333
