14
b3lypvtz=-226972.45654829
C      -0.88203648      1.19485756      0.85727267
C      -1.16626535     -0.19619311      0.20735585
C       0.30729074     -0.19929970     -0.13327875
C       1.18958724     -1.09642763     -0.56152643
O       2.53878357     -0.87466266     -0.63295005
N       0.54293564      1.11645392      0.40276514
O      -1.69425863     -1.23351707      1.00011833
H      -0.96514998      1.18811780      1.94495212
H      -1.44814804      2.03472277      0.45484523
H      -1.82802188     -0.12244265     -0.65667367
H       0.90225840     -2.08494819     -0.88772946
H       2.73627113     -0.06860580     -0.13752352
H       0.79667862      1.81813214     -0.28267581
H      -1.02992498     -1.47618738      1.65526984
