16
b3lypvtz=-204437.36631063
C      -2.38908074      0.99850721     -0.05462802
C      -1.48419054      0.03815283      0.19249362
O      -1.67763395     -1.28175700     -0.09839667
N      -0.26649811      0.22277742      0.81094959
C       0.89297837     -0.55794611      0.47472790
C       1.54555123     -0.43583422     -0.87819163
C       2.20885433      0.14654787      0.34457739
H      -2.16163881      2.03650917      0.13185184
H      -3.38396898      0.74995883     -0.39335540
H      -2.46940286     -1.35572857     -0.64003452
H      -0.09522256      1.16357327      1.12037248
H       0.91149465     -1.53962436      0.92983786
H       1.09808176      0.25474565     -1.57936986
H       1.96772873     -1.32619197     -1.32297374
H       2.21449185      1.22459240      0.44264102
H       3.08845565     -0.33818243      0.74399814
