12
b3lypvtz=-223860.80365848
N       0.87966264     -0.12691972     -0.22834822
C       0.29211707     -1.36293833      0.04020976
C       0.83332269     -2.61770575     -0.00670840
N      -0.24108492     -3.47840321      0.27845255
H      -0.22164890     -4.48035265      0.33505409
C      -1.31579692     -2.69507930      0.47126783
O      -2.51074584     -3.23872609      0.77075085
N      -1.05505978     -1.42102673      0.34282386
H       0.36139290      0.62781065      0.19688018
H       1.85650893     -0.07555621      0.01715771
H       1.82014921     -2.98328996     -0.21914272
H      -3.13351708     -2.50671270      0.85710251
