14
b3lypvtz=-180343.90884222
C      -3.72744129      0.02888747     -0.13210199
C      -2.52741764      0.01037265     -0.02065556
C      -1.17007016     -0.00916057      0.10770639
C       0.03228888     -0.02818023      0.21818988
C       1.48562562     -0.03876191      0.37670812
C       2.11762695      1.23711457     -0.19627764
N       2.05012818     -1.21196538     -0.31276391
H      -4.78366522      0.04469192     -0.23339821
H       1.68270064     -0.05292000      1.45989586
H       3.19656806      1.22116041     -0.03009666
H       1.70926402      2.12357720      0.28760743
H       1.93121998      1.29555330     -1.26748497
H       1.62609849     -2.06384797      0.03548475
H       3.04373849     -1.27051846     -0.11861348
