13
b3lypvtz=-234666.20659583
N       2.12657199     -1.25088188      0.09743362
C       1.43796988     -0.17934007     -0.01478985
N       1.88019914      1.12521631     -0.09253070
N       0.06202203     -0.31990258     -0.14961519
N      -0.76296352      0.74477966      0.03035985
C      -2.01104373      0.53570238      0.07729479
O      -2.54776721     -0.71632914     -0.02591225
H       3.12201754     -1.05388903      0.11568111
H       1.17768667      1.82789250      0.08089770
H       2.77746506      1.30125678      0.32431620
H      -0.28871571     -1.26273403     -0.05921335
H      -2.68576263      1.37166514      0.20227192
H      -3.50528452     -0.67390103      0.04768716
