14
b3lypvtz=-180341.2532033
C       1.16642625     -0.69810148     -0.82748667
C       1.36578247      0.58452351     -0.51671058
C       0.24316613      1.02161483      0.39211110
N      -1.00322979      1.01060362     -0.51930289
C      -1.27516668     -0.34305842     -0.00881031
C      -0.26193549     -0.28430259      1.08756597
C       0.00596963     -1.22228947     -0.05986605
H       1.69777707     -1.26549647     -1.57811525
H       2.06576374      1.26144803     -0.98352208
H       0.36894774      1.93647650      0.96239784
H      -1.68532570      1.62443692     -0.08153428
H      -2.25617629     -0.79232286     -0.07566141
H      -0.27319145     -0.55124257      2.13603456
H      -0.15880763     -2.28218956      0.07280004
