16
b3lypvtz=-204487.04393272
C      -0.09587819     -1.27694483      0.38646276
C      -1.24209568     -0.46406289     -0.21141740
C      -1.08631433      1.00693995      0.15342660
N       0.26586169      1.47945121     -0.12943346
C       1.40997700      0.73442957     -0.16572499
O       2.50847658      1.25766097     -0.24880741
C       1.24302147     -0.77870560     -0.16143061
H      -0.21829992     -2.33935591      0.16852992
H      -0.11205179     -1.17792865      1.47620150
H      -1.24205925     -0.57376766     -1.29970899
H      -2.20889107     -0.81907031      0.14947033
H      -1.79175269      1.61798021     -0.41292049
H      -1.32179275      1.14549233      1.21605622
H       0.43467595      2.47403524     -0.10617471
H       1.36603242     -1.09858848     -1.20080114
H       2.09109056     -1.18756515      0.38627188
