14
b3lypvtz=-257912.37719708
C       0.41693050      1.92532458     -0.23330298
C       0.32994316      0.40679740     -0.45319951
C       1.24291096     -0.33231358      0.50273147
N       2.28844306     -0.98217430      0.21523023
C      -1.11153074     -0.06299664     -0.32135991
F      -1.57884349      0.15021236      0.94951696
F      -1.20204482     -1.40495404     -0.56194465
H      -0.24949304      2.45746918     -0.91452659
H       1.43254676      2.27593909     -0.41081576
H       0.13731581      2.18809196      0.78671428
H       0.63380898      0.16888115     -1.47673915
H       0.96796851     -0.26167406      1.55671978
H       2.45179826     -0.99139907     -0.79478123
H      -1.78910691      0.44670496     -1.01045293
