15
b3lypvtz=-216887.73781249
C      -1.58240652     -0.21648217     -0.90840358
C      -0.32379038      0.00237198     -0.12624168
C      -0.14218571      1.01963594      0.99146316
O       1.24826678      1.26480477      0.61148772
C       1.09864248      0.39801826     -0.52494911
C       0.82636193     -0.98161474     -0.03808470
O       1.35850075     -1.45835810      1.16149774
H      -2.00260197      0.72616798     -1.26710287
H      -2.34157566     -0.71102036     -0.29671487
H      -1.39953456     -0.85083227     -1.77718706
H      -0.72859855      1.92980814      0.85355948
H      -0.23417369      0.66105693      2.01890652
H       1.57115275      0.69562957     -1.45208754
H       0.79682177     -1.74955015     -0.80257383
H       1.85512060     -0.72963579      1.55643064
