15
b3lypvtz=-191179.2775093
C       0.19324730     -1.19243960      0.35185042
C      -0.20975054     -0.04348177     -0.62400207
C       0.65689852      0.85050107      0.26754076
N       0.96116053     -0.26716910      1.25367793
C       2.01780418      0.31173127      0.41046753
C      -1.66784574      0.27418686     -0.59258463
N      -2.35025896      0.37339948     -1.65556290
H       0.79550152     -1.99806754     -0.07123727
H      -0.65043234     -1.62155634      0.88923159
H       0.10772319     -0.13195430     -1.66247939
H       0.38838650      1.84579502      0.59904681
H       2.72979229      0.90058518      0.97377166
H       2.45026883     -0.29075064     -0.38224463
H      -2.09640128      0.40589059      0.41005987
H      -3.32609400      0.58332982     -1.44604760
