14
b3lypvtz=-231989.73268079
C      -3.11585785     -0.31905583      0.00000352
C      -1.91636941      0.24174305     -0.00000014
O      -0.78500908     -0.53868453      0.00000238
C       0.45618114     -0.00632627      0.00000199
F       0.47173300      1.33935154     -0.00000417
C       1.56569570     -0.72934719      0.00000595
C       2.95249559     -0.16667282      0.00000457
H      -3.99304943      0.30882702      0.00000110
H      -3.24375590     -1.39184496      0.00000883
H      -1.75056976      1.30776148     -0.00000545
H       1.42854928     -1.80171737      0.00001078
H       3.51242027     -0.49898080      0.87802524
H       3.51242573     -0.49900004     -0.87800525
H       2.94504773      0.92175671     -0.00000736
