15
b3lypvtz=-216890.00049243
C      -1.23323831      1.11867531     -0.35286595
C      -0.04390669      0.20163804     -0.57518957
C      -1.41875766     -0.36982004     -0.39234632
O      -1.66017157     -1.07292579      0.79896484
C       0.98206948      0.05386132      0.49231917
C       2.28019156     -0.57199202      0.23326347
O       2.16933335      0.85079816      0.34638157
H      -1.30154989      1.59063973      0.61844559
H      -1.59076219      1.71709909     -1.17927172
H       0.35803971      0.16733766     -1.58004828
H      -1.89250431     -0.79906282     -1.26997091
H      -2.56422391     -0.89605370      1.07770357
H       0.59726036      0.01406167      1.50555190
H       2.50399664     -0.94070838     -0.76345429
H       2.81422344     -1.06354822      1.04051695
