16
b3lypvtz=-227776.79642862
C       1.81406392      1.15973142     -0.49312927
C       1.10847770     -0.16483941     -0.26643977
O       2.11299665     -1.11036911      0.10252791
C       0.04430983     -0.09811459      0.84143741
N      -1.10131844      0.73376447      0.50677136
C      -2.18287578      0.25540120     -0.15886992
O      -2.31260121     -0.88786075     -0.54510943
H       1.10302240      1.93730899     -0.77449204
H       2.33656050      1.46960837      0.41434133
H       2.54866276      1.06387967     -1.29181995
H       0.61338079     -0.47939180     -1.19173190
H       1.72761560     -1.99213494      0.08694782
H       0.50051612      0.27577981      1.75926304
H      -0.32844492     -1.10484476      1.03233846
H      -1.10246310      1.70408753      0.77054214
H      -2.95612182      1.02888192     -0.31283719
