18
b3lypvtz=-205209.87788133
C      -3.03022190     -0.07735133     -0.13816935
C      -1.76812786     -0.25865283      0.25587513
N      -0.63424115      0.30959599     -0.30978541
C       0.57952370      0.50016807      0.49981205
C       1.43340554      1.59732874     -0.12738794
C       1.33852345     -0.83112061      0.58935408
O       1.68802678     -1.33598627     -0.68690027
H      -3.29002591      0.58871171     -0.95171916
H      -3.83306722     -0.61445896      0.34227332
H      -1.55288676     -0.93876821      1.07261396
H      -0.83190616      1.07948976     -0.93150596
H       0.31202108      0.80205300      1.52105737
H       2.32973926      1.76866784      0.46852608
H       1.74736690      1.31209759     -1.13169197
H       0.88281845      2.53849544     -0.18250946
H       0.73712769     -1.56166114      1.14520693
H       2.26905113     -0.68767118      1.14087111
H       0.88377497     -1.29939860     -1.22079851
