14
b3lypvtz=-224606.03922468
C       2.61541370     -0.81450153     -0.04311182
C       1.34866756     -0.01780020      0.00546002
N       1.47511368      1.36395422      0.01257133
N       0.22922960     -0.64224557     -0.02064821
N      -0.90717050      0.15259390     -0.04367328
C      -2.13598736     -0.42426693      0.11730080
O      -3.18167659      0.15712415     -0.07147692
H       3.20417420     -0.54998674     -0.92493101
H       3.23219589     -0.61859138      0.83780751
H       2.37783843     -1.87335261     -0.08519652
H       0.75573917      1.87014079      0.50890980
H       2.39813337      1.71410884      0.21058513
H      -0.89035724      1.04749627     -0.52203162
H      -2.05473993     -1.46653723      0.46190880
