19
b3lypvtz=-171822.13500624
C       1.84880601     -1.97021803     -0.04114176
C       0.99453229     -1.14110387      0.11450335
C      -0.06330554     -0.14220778      0.27527510
C      -1.41305058     -0.71729420     -0.21826758
C      -2.63016962      0.13167722      0.14758387
C       0.31472273      1.18580662     -0.41751597
C       1.56821113      1.84753070      0.15085260
H       2.60540821     -2.70278400     -0.17123321
H      -0.16313133      0.05941922      1.34933740
H      -1.53053795     -1.71529938      0.20793521
H      -1.35893094     -0.85216237     -1.30180874
H      -2.68839446      0.29351844      1.22655331
H      -3.54979585     -0.36828825     -0.15998494
H      -2.61566273      1.10910834     -0.33536910
H      -0.52790071      1.87302194     -0.32386465
H       0.44669081      0.99253884     -1.48546399
H       1.44550535      2.07712289      1.21185038
H       2.43938072      1.19999978      0.04895794
H       1.78184547      2.78358691     -0.36732321
