20
b3lypvtz=-182676.07649794
C       1.59549263     -1.45511553     -0.16891986
C       0.41951521     -0.63723603      0.34701896
C      -0.95271021     -1.28595114      0.08089593
C      -1.92638368     -0.10124429     -0.13804127
C      -1.04570858      1.14169839      0.04012612
N       0.29543632      0.67564428     -0.29649216
C       1.33613677      1.62775219      0.03444030
H       2.55437426     -0.99780206      0.07883297
H       1.53413143     -1.55884134     -1.25382160
H       1.58610852     -2.45218650      0.27542328
H       0.53995011     -0.50240237      1.43932662
H      -0.90071639     -1.91184726     -0.81092445
H      -1.25122189     -1.92752530      0.90999439
H      -2.75998905     -0.10689730      0.56352816
H      -2.34550102     -0.13089897     -1.14324639
H      -1.09285807      1.49785707      1.08574924
H      -1.33634165      1.97537877     -0.60143968
H       1.38672057      1.84335173      1.11699632
H       1.15339917      2.56859725     -0.48684409
H       2.31053156      1.25850140     -0.28411780
