21
b3lypvtz=-195908.82291501
C       3.30582290      0.51476154     -0.13209757
C       2.14848880     -0.32679407      0.36662074
O       0.96000170      0.10700223     -0.27012107
C      -0.18921103     -0.62155267      0.12033680
C      -1.41599394     -0.07869652     -0.60522403
C      -1.66892701      1.39073196     -0.26027298
C      -2.63737822     -0.94772311     -0.29377097
H       4.23717074      0.19697678      0.33932004
H       3.14335956      1.56762031      0.10001852
H       3.41408700      0.41537317     -1.21243548
H       2.32281616     -1.39001287      0.14829348
H       2.04463150     -0.23324553      1.45686983
H      -0.05293381     -1.68670319     -0.11595876
H      -0.33249275     -0.54459147      1.20957214
H      -1.20550671     -0.14870272     -1.67724238
H      -2.51641374      1.78347677     -0.82506695
H      -1.89720547      1.50469287      0.80333706
H      -0.79543137      2.00102388     -0.48430527
H      -3.51427567     -0.59361945     -0.83772547
H      -2.47200872     -1.99077233     -0.57115845
H      -2.87859990     -0.91924559      0.77217896
