18
b3lypvtz=-205208.98054278
C      -2.85677838     -0.22179317     -0.42372500
C      -1.60054764     -0.64390758      0.33013193
N      -0.39521236      0.06396005     -0.10517519
C      -0.41563568      1.48323289      0.22915042
C       0.82426296     -0.56468268      0.36869366
C       2.02826862     -0.16082634     -0.46083637
O       3.15617850     -0.11969383     -0.04569824
H      -3.14480455      0.80699186     -0.20748837
H      -2.70568794     -0.31556576     -1.49978251
H      -3.69364015     -0.85964041     -0.13542146
H      -1.42928931     -1.70784092      0.15576369
H      -1.76361427     -0.52459089      1.41575998
H      -1.26125661      1.97607300     -0.24597409
H      -0.47577312      1.66038536      1.31639263
H       0.49129496      1.96569428     -0.13708400
H       1.04913995     -0.38065618      1.43134959
H       0.73279089     -1.64970689      0.24541739
H       1.78671213      0.07183119     -1.51919405
