15
b3lypvtz=-191217.00613364
C       2.02738938      0.82004844      0.31404868
C       0.86309976      0.28731924     -0.06980099
C       0.70166995     -1.18858614     -0.34295051
N      -0.60758323     -1.76407136     -0.04614688
C      -1.58459210     -0.98325845      0.12590283
C      -1.57055089      0.51633321      0.06025905
N      -0.27747516      1.03687710     -0.35357342
H       2.90602019      0.20327885      0.43009252
H       2.14074442      1.88414208      0.48040376
H       1.44765023     -1.75042634      0.21868479
H       0.89946618     -1.38801916     -1.40205874
H      -2.55584953     -1.42735728      0.34830625
H      -2.34656062      0.83593466     -0.64354187
H      -1.87813014      0.89535066      1.04777998
H      -0.16519843      2.02233449     -0.16750547
