17
b3lypvtz=-194386.30708889
C      -2.16115163     -0.74010397     -0.48971881
C      -1.18238348      0.01070940      0.40396005
C      -0.66206451      1.30596318     -0.15624301
C       0.66206514      1.30596292     -0.15624284
C       1.18238342      0.01070898      0.40396047
C       2.16115162     -0.74010475     -0.48971798
O      -0.00000020     -0.77867888      0.60808855
H      -1.72808999     -0.90874550     -1.47605092
H      -2.40540912     -1.70626049     -0.04762653
H      -3.08735997     -0.17294917     -0.60425039
H      -1.66268625      0.18501351      1.37891249
H      -1.30835081      2.10539453     -0.48983526
H       1.30835179      2.10539404     -0.48983481
H       1.66268587      0.18501297      1.37891308
H       3.08736009     -0.17295015     -0.60424940
H       2.40540881     -1.70626126     -0.04762550
H       1.72809022     -0.90874635     -1.47605018
