14
b3lypvtz=-226997.36555568
C       2.57031148      0.10472551     -0.22345597
N       1.16357917     -0.16908859     -0.41742777
C       0.31586412      0.67037505     -0.00206265
C      -1.14717809      0.43203158     -0.17903757
O      -1.94921830      1.25047259      0.22669366
C      -1.61977454     -0.83141216     -0.86439047
O      -3.01916558     -0.87938568     -0.93747698
H       3.06373074      0.10465841     -1.19737424
H       2.76974606      1.05443602      0.28633342
H       3.00991889     -0.71421517      0.34936099
H       0.57163419      1.60912418      0.50421160
H      -1.16820103     -0.87269917     -1.86240386
H      -1.22077738     -1.69208753     -0.31504011
H      -3.34056974     -0.06683504     -0.51793008
