15
b3lypvtz=-191177.57869055
C       1.19402044     -0.73917193     -0.58895310
C      -0.31298036     -0.64146134     -0.76711337
C      -0.61352653      0.86887370     -0.57458450
C       0.31995136      1.10028118      0.57410813
C      -1.05230912      0.48910763      0.81792020
N      -0.94478189     -0.96931117      0.57873960
N       1.48304974      0.22727226      0.50166227
H       1.51639238     -1.74201034     -0.30919246
H       1.71548267     -0.44510709     -1.50579151
H      -0.74415637     -1.16510526     -1.61682573
H      -0.94848702      1.60129866     -1.29464381
H       0.48057300      2.11134439      0.92372719
H      -1.79225707      0.91686633      1.48095608
H      -1.87794583     -1.33046510      0.40826047
H       1.57697460     -0.28241192      1.37173055
