12
b3lypvtz=-228857.33425875
F       2.35126993     -0.53274004     -0.00044823
C       1.62631826      0.66302087      0.00009679
C       0.16332641      0.35765546      0.00005732
C      -0.96046328      1.14197768     -0.00011451
N      -2.09231294      0.36127818      0.00008126
C      -1.66418800     -0.87642266      0.00001498
N      -0.30209350     -0.93406322      0.00022303
H       0.28126974     -1.75345419      0.00009832
H       1.92396957      1.22500490     -0.88745703
H       1.92413282      1.22424021      0.88807760
H      -1.02037273      2.21774003     -0.00045991
H      -2.27920831     -1.76106622      0.00003738
