10
b3lypvtz=-202146.6030164
C       2.02432253     -0.85411315     -0.56987317
C       1.19727283     -0.04431036     -0.26133640
C       0.17524310      0.91387434      0.13361441
C      -1.08023258      0.24529312      0.68273343
O      -1.58297764      0.52875483      1.73576323
C      -1.69575269     -0.77957296     -0.18292704
N      -2.20824128     -1.55252178     -0.86457625
H       2.75909048     -1.56850603     -0.84788830
H      -0.12577208      1.51713872     -0.73109802
H       0.53704734      1.59396325      0.90558810
