17
b3lypvtz=-217690.39901713
C      -0.93635277      1.89452053      0.67308002
C      -0.81280408      0.61054117      0.34372333
C      -1.48146754     -0.48074415      1.13455232
C       0.00460540      0.19967087     -0.85935659
C       1.38369242     -0.37770583     -0.53108808
O       1.34779896     -1.60547522      0.16883746
O       2.05782104     -0.52073188     -1.76464218
H      -1.51505536      2.20574474      1.53357745
H      -0.46606401      2.67842742      0.09245282
H      -2.06445540     -0.07352564      1.95983701
H      -0.74528915     -1.17881504      1.53633841
H      -2.15448813     -1.06181322      0.49617525
H      -0.53208276     -0.54817473     -1.45434567
H       0.16911984      1.06142732     -1.50605393
H       1.92589340      0.29665901      0.13784826
H       0.87776865     -2.24284550     -0.38313745
H       2.94125948     -0.85705984     -1.57789843
