18
b3lypvtz=-181887.70014487
C      -3.21742515     -0.27228748     -0.11367852
C      -1.79454522     -0.00340434      0.04303920
C      -0.61946049      0.21495056      0.16701018
C       0.80801890      0.51095735      0.34070481
C       1.13401838      1.93647717     -0.12046946
N       1.63479425     -0.44106941     -0.41086384
C       1.57749432     -1.81022817      0.08456659
H      -3.38540081     -1.28340140     -0.49254981
H      -3.67703192      0.42683752     -0.81654987
H      -3.74347597     -0.18246947      0.83993553
H       1.01875052      0.44683071      1.42338548
H       0.52503821      2.66285481      0.41574921
H       2.18544510      2.16411151      0.06976263
H       0.94254086      2.03559652     -1.18827072
H       2.59208244     -0.11077176     -0.39012843
H       0.57474156     -2.21057131     -0.06524002
H       1.82170691     -1.90902981      1.15430049
H       2.27261911     -2.42775700     -0.48440945
