16
b3lypvtz=-204465.14311162
C      -0.99662667     -0.15568706      1.51671956
C      -0.46711822     -0.07506346      0.11363454
C      -1.45578455     -0.41875806     -0.96561093
C       0.80536163      0.24362457     -0.23025953
N       1.25479000      0.28242081     -1.55333408
C       1.82685077      0.65235567      0.74613423
O       2.97471166      0.89923358      0.42808030
H      -0.26241807      0.04941567      2.28980694
H      -1.40218552     -1.15466353      1.70734081
H      -1.82955346      0.54201419      1.64836935
H      -2.48071576     -0.27657204     -0.62156360
H      -1.29969862      0.19408276     -1.85547748
H      -1.36726389     -1.46795625     -1.27330826
H       2.25844293      0.40016434     -1.59520164
H       0.93122210     -0.46157699     -2.14980540
H       1.50998567      0.74686582      1.79447519
