14
b3lypvtz=-229599.10941768
N       2.60142441      0.07244740     -0.22020191
C       1.70280118     -0.93385130      0.05945854
C       0.35870955     -0.85183742      0.15347813
C      -0.46425929      0.32651617      0.08629595
F       0.22218753      1.52473665      0.12616305
C      -1.79722465      0.42760274     -0.00622952
N      -2.69729238     -0.62708034     -0.20209390
H       3.54694560     -0.07335142      0.08819576
H       2.27016232      1.01719926     -0.11721170
H       2.15967352     -1.91074023      0.15712936
H      -0.16563239     -1.78556270      0.30527827
H      -2.23520523      1.41640671     -0.00830061
H      -2.29899548     -1.54768805     -0.09409031
H      -3.54386069     -0.54318247      0.34188288
