10
b3lypvtz=-248788.00334641
C      -1.63123524      0.05990039      0.03161846
C      -0.17523405     -0.11416713     -0.15025340
N       0.39694138     -0.82744141     -1.04285474
O       1.79110651     -0.65971605     -0.79123726
C       1.95453495      0.16834823      0.26790917
O       2.97071658      0.52900418      0.75523679
O       0.68096168      0.52553418      0.68772627
H      -1.92852021     -0.27350983      1.02664382
H      -2.16004702     -0.52069469     -0.71979227
H      -1.89932459      1.11274213     -0.06509683
