13
b3lypvtz=-190464.29832268
N      -2.85281158     -0.00942333     -0.36372404
C      -1.77269370      0.01257771      0.03266286
C      -0.40283350      0.03370880      0.53735231
C       0.43625608      1.21866383      0.07942848
C       1.65582700      0.77296814     -0.22303804
N       1.80578145     -0.60613961     -0.05037993
C       0.44638786     -1.16995788      0.03302216
H      -0.46342752      0.01471890      1.63261124
H       0.10991417      2.24314028      0.12208494
H       2.51141002      1.36202432     -0.51904980
H       2.42137194     -1.06773732     -0.70392579
H       0.08585494     -1.48361683     -0.95156744
H       0.40483785     -2.01966703      0.71106502
