12
b3lypvtz=-249595.88167109
C      -2.43137965     -0.69349437     -0.00004792
C      -1.13743253      0.07820480     -0.00009839
O      -1.11985933      1.30400400     -0.00013902
N       0.01554631     -0.66308525     -0.00006103
C       1.35464159     -0.17290180      0.00000098
O       2.27169968     -0.94529272      0.00005857
O       1.46141764      1.14527192      0.00005862
H      -3.00749226     -0.40332067     -0.87837555
H      -3.00733431     -0.40343898      0.87842514
H      -2.29260782     -1.77291415     -0.00012570
H      -0.03799892     -1.66898977     -0.00004499
H       0.55138760      1.54059398     -0.00001871
