14
b3lypvtz=-203670.43632375
O       0.83845452      0.66658007     -2.13046044
C       0.83454610      0.23416372     -1.01434349
C       1.89574587     -0.29371202     -0.03608176
N       0.79636813     -0.60941844      0.93532404
C      -0.21337667     -0.03684455      0.02111732
C      -1.41361190      0.80067476      0.36767399
C      -1.59932042     -0.57003459     -0.21482532
H       2.44426553     -1.17285029     -0.37680305
H       2.60493461      0.47123833      0.28838666
H       0.88645076     -0.06879841      1.78735447
H      -1.62201380      0.93448977      1.42127538
H      -1.61092548      1.66420244     -0.25332986
H      -1.92559637     -0.65549743     -1.24255326
H      -1.91592087     -1.36419337      0.44716530
