13
b3lypvtz=-213765.18097294
C      -1.45908837      0.32849660     -0.63519556
C      -0.37027836     -0.56792876     -0.14072123
C       0.91094696     -0.21303038      0.05767316
C       1.34639746      1.13927534     -0.16634675
N       1.72293701      2.21948693     -0.30555715
N       1.94427773     -1.08263966      0.41398155
O      -2.55941020      0.39050409      0.27448779
H      -1.88451312     -0.07133000     -1.55814232
H      -1.07139143      1.32650946     -0.85934368
H      -0.65492038     -1.59375338      0.06948452
H       2.68026720     -0.67276406      0.96826649
H       1.63582172     -1.97027033      0.78018315
H      -2.24104620      0.76744413      1.10123002
