15
b3lypvtz=-242812.28422842
C       2.12005515      0.06315232      0.17050552
C       0.81011456      0.11651539     -0.48144093
O       1.67290513     -1.01305765     -0.66196699
C      -0.47046538     -0.12847515      0.29571291
C      -1.48564691     -0.88003391     -0.54594975
F      -1.87297793     -0.08486085     -1.63479734
N      -1.08829127      1.08939468      0.81784121
H       2.17988602     -0.16930255      1.23010082
H       2.94837557      0.64059697     -0.22673579
H       0.70104001      0.73900084     -1.36615144
H      -0.22585916     -0.78364433      1.13846415
H      -2.38250103     -1.09293402      0.03578318
H      -1.05908416     -1.80101828     -0.94377174
H      -1.42975211      1.66217972      0.05465436
H      -0.41779848      1.64248679      1.33734214
