16
b3lypvtz=-204437.7899109
O       3.55000699     -0.38262671     -0.83012435
C       2.56645787     -0.58383735     -0.16633789
C       1.15010562     -0.50170351     -0.67182466
C       0.31465907      0.51370326      0.12701746
C      -1.13299835      0.53468266     -0.30173848
C      -2.13115224     -0.33304200      0.36449587
N      -2.16053591      1.12788419      0.56210234
H       2.66076496     -0.84712887      0.91047847
H       1.17145566     -0.25215751     -1.73282448
H       0.70123068     -1.49567191     -0.56229932
H       0.36893249      0.27796351      1.19523862
H       0.74638436      1.51114199      0.00210362
H      -1.28599996      0.76089026     -1.35244503
H      -2.96841915     -0.73521134     -0.19161894
H      -1.78812141     -0.95833926      1.18168424
H      -1.76277068      1.36365257      1.46629255
