14
b3lypvtz=-201301.23950968
N       3.30260708     -0.46366771     -0.41722187
C       2.32018089      0.01648726     -0.05900094
C       1.06821823      0.61209875      0.41334245
C      -0.06477814     -0.38052116      0.44770041
C      -1.31258069     -0.09268711      0.03765299
N      -1.72519253      1.19183976     -0.32000559
N      -2.29593273     -1.06521528     -0.17785324
H       1.27651695      1.05427865      1.39559413
H       0.81749639      1.44094689     -0.25425201
H       0.15555595     -1.38060020      0.79208391
H      -1.52579506      1.93336234      0.32925109
H      -2.64153381      1.24886038     -0.73231309
H      -1.97207710     -2.00842249     -0.02581945
H      -3.16545842     -0.89202509      0.30940821
