13
b3lypvtz=-213753.41217081
C      -2.97015317     -0.32039445     -0.19815050
C      -1.82775788      0.13145047      0.28977280
O      -0.63976105     -0.52502653      0.05610757
C       0.52114460      0.19975433     -0.01708943
N       0.66730809      1.44745177     -0.12851094
C       1.69898582     -0.72364536      0.04031618
N       2.90279466     -0.35021389     -0.02621856
H      -3.89548170      0.17103821      0.06144383
H      -3.00595345     -1.18547348     -0.84488880
H      -1.75313169      0.99145017      0.94501690
H      -0.20182690      1.96749341     -0.20322114
H       1.46056653     -1.78044762      0.14774536
H       2.93637012      0.66939597     -0.12644127
