16
b3lypvtz=-202029.74493284
C      -0.95933579      1.82626019      0.00698709
C      -0.79354923      0.48938446     -0.03373796
N      -2.01065816     -0.26128757     -0.00603397
N      -1.84201695     -1.49420069      0.03602177
N       0.37506152     -0.20671078     -0.10613909
C       1.66829787      0.41339335      0.08666568
C       2.78323476     -0.61737182     -0.01697948
H      -0.13102227      2.51697109      0.01769052
H      -1.96440627      2.21411048      0.02424362
H      -2.77439189     -1.92343517      0.05928101
H       0.27750693     -1.19476889      0.07550801
H       1.80978864      1.18623581     -0.67546231
H       1.71671875      0.92256376      1.05921282
H       3.75505283     -0.14285781      0.11828531
H       2.77325002     -1.10463511     -0.99285667
H       2.67837625     -1.38722329      0.75039766
