14
b3lypvtz=-224580.31211436
C      -1.19182828      0.12566037      0.56423456
C      -2.65265734      0.24161891      0.23517194
O      -3.12727079     -0.03279119     -0.83850629
N      -0.45712653     -0.45185018     -0.52451410
C       0.90698931     -0.29436489     -0.60748899
N       1.59505319      0.17350610      0.35419557
N       2.98109365      0.29618550      0.13988259
H      -1.09100806     -0.46145731      1.48664183
H      -0.82499400      1.12902624      0.83046485
H      -3.28617556      0.61575337      1.06220486
H      -0.97290532     -0.51380107     -1.38876183
H       1.34167871     -0.63231298     -1.55169531
H       3.35551406     -0.48683649     -0.39234414
H       3.42363696      0.29166362      1.04849853
