14
b3lypvtz=-224624.3712739
C      -2.74428966      0.04764955      0.03451330
N      -1.52198019     -0.72891534      0.02433297
C      -0.41841002     -0.09365344     -0.02352160
N      -0.20374638      1.25017402     -0.09011853
N       0.74909891     -0.89346448     -0.05407026
C       2.05330236     -0.51425265      0.00860122
O       2.47264625      0.62631900      0.07665785
H      -2.85160613      0.67378763     -0.86140547
H      -3.59749614     -0.62758960      0.06840388
H      -2.81835754      0.70884457      0.91008604
H      -0.97008973      1.86022018      0.12701358
H       0.74272595      1.58306474      0.03228610
H       0.53579285     -1.87907396     -0.07281968
H       2.72947549     -1.38380521     -0.01138740
