14
b3lypvtz=-180355.47874267
C      -0.95233814     -0.87799742     -0.35342229
C      -0.61109965     -0.03052221      0.92064492
C      -0.60703417      1.37573127      0.32464400
C       0.03186115      1.23234762     -0.84246096
C       0.37969214     -0.25317720     -0.89334987
C       0.84911621     -0.42456240      0.58660144
N       1.82460857     -0.81256546      1.26478838
H      -0.89409834     -1.95433062     -0.18745133
H      -1.85976151     -0.59569075     -0.88610869
H      -1.05926330     -0.20768480      1.89210783
H      -0.97244659      2.27063436      0.80230020
H       0.32199373      1.97944380     -1.56395587
H       0.92235132     -0.65346584     -1.74427146
H       2.62641859     -1.04816037      0.67993369
