17
b3lypvtz=-194385.01145126
C       2.40549067     -0.71884761      0.00011933
C       1.18456541      0.17309002     -0.00002295
O       1.27911122      1.38153959     -0.00023502
C      -0.17299120     -0.49981340      0.00010739
C      -1.19683677     -0.03174369      1.07931477
C      -2.30568264     -0.04859909     -0.00000954
C      -1.19681549     -0.03219563     -1.07931939
H       3.31328366     -0.12059395     -0.00001245
H       2.39078939     -1.37189282      0.87681929
H       2.39075309     -1.37222726     -0.87633062
H      -0.07110634     -1.58541971      0.00033616
H      -1.32026537     -0.67295855      1.95103520
H      -0.96287791      0.98128112      1.40325245
H      -3.01720395      0.77588875     -0.00018915
H      -2.86031544     -0.98720782      0.00018128
H      -1.32022920     -0.67377024     -1.95077771
H      -0.96285113      0.98069527     -1.40367205
