16
b3lypvtz=-204475.46043414
C       3.28385874     -0.26681504     -0.36994196
C       2.24139111      0.05452039      0.38581507
C       0.89433858      0.46947449     -0.12250849
C      -0.22479323     -0.46477711      0.35574460
C      -1.61224926      0.07539906      0.03012664
N      -2.55724468     -0.87314350     -0.23205401
O      -1.86928069      1.26426039      0.01641499
H       4.23379475     -0.55143173      0.06313144
H       3.22669748     -0.24901616     -1.45238614
H       2.34808933      0.02348673      1.46794681
H       0.65372801      1.47711052      0.22461278
H       0.90182808      0.50744106     -1.21389920
H      -0.09054957     -1.46630683     -0.05906279
H      -0.17517065     -0.56840422      1.44501726
H      -2.36597307     -1.85398538     -0.14084702
H      -3.51023293     -0.57382868     -0.35192898
