13
b3lypvtz=-237079.97899092
N       3.28290856      0.18829439     -0.08656967
C       2.04360222     -0.44189003      0.00928778
C       0.85039586      0.16679218      0.01685192
N      -0.32572190     -0.58606838      0.00535870
C      -1.45768124     -0.03518411      0.00090904
O      -1.70636037      1.29324250      0.00277499
O      -2.61243828     -0.74988916     -0.00604306
H       3.27209282      1.17824661      0.11094217
H       4.02830899     -0.27402304      0.41059667
H       2.08085921     -1.52429567      0.00697989
H       0.78327162      1.25243868      0.01825175
H      -2.66144224      1.42729012     -0.00981349
H      -2.35449926     -1.68071109     -0.01118870
