15
b3lypvtz=-191193.26399894
C       2.05878550      1.37173273      0.14159290
C       2.31912283     -0.08168662     -0.09236895
C       1.43786563     -1.09434554     -0.08587626
C       0.00139920     -1.05871659      0.12082819
C      -0.85730734     -0.05472694     -0.12839884
N      -2.21519419     -0.25981441      0.14591888
N      -2.93122881      0.72917479     -0.12529337
H       1.93217702      1.90700686     -0.80545652
H       1.16026830      1.54129317      0.73395759
H       2.90522005      1.83423723      0.65160095
H       3.35661039     -0.34745279     -0.26724330
H       1.84427826     -2.09215046     -0.21444408
H      -0.45091859     -1.97328945      0.49112067
H      -0.58285122      0.90169213     -0.55981739
H      -3.89629903      0.46487189      0.11163855
