15
b3lypvtz=-191223.47201636
C       2.58734203     -0.63880380     -0.01542612
N       1.26785522     -0.15559383      0.35687861
C       0.79154346      1.01771323     -0.17496816
C      -0.47632204      1.45461301     -0.23091633
C      -1.69364847      0.72125773      0.28655887
C      -1.74598125     -0.69482838     -0.08496289
N      -1.74053994     -1.81387106     -0.35609464
H       2.63297150     -1.03534694     -1.03626664
H       3.30995638      0.17333629      0.06917516
H       2.89152699     -1.42630142      0.67268556
H       0.58748051     -0.88567208      0.50330618
H       1.57045264      1.66700753     -0.55929290
H      -0.65249022      2.43638090     -0.64272472
H      -1.76234440      0.76728263      1.38052214
H      -2.60020641      1.19481920     -0.09360111
