15
b3lypvtz=-214538.37663564
N      -2.21587036      0.91707291     -0.12502581
C      -1.26550969     -0.04526752      0.06621547
O      -1.51426198     -1.09299776      0.64092439
C       0.09181015      0.29214868     -0.44877207
C       0.96575502     -0.84201550     -0.94622670
C       1.29206310     -0.18758715      0.34890655
N       2.43321529      0.69070875      0.38409434
H      -3.16208100      0.70370970      0.14042846
H      -2.04357874      1.72588455     -0.69328863
H       0.22214792      1.24774347     -0.93791085
H       0.52779642     -1.82886748     -0.91267279
H       1.60372947     -0.62156731     -1.79006162
H       1.02752032     -0.75437232      1.23682571
H       3.28952985      0.15661767      0.47712290
H       2.38273023      1.31655131      1.17931267
