19
b3lypvtz=-192731.44963396
N      -1.56981336     -1.79921466     -0.03922877
C      -1.12908182     -0.43149754     -0.22665356
C      -1.55672964      0.73999394      0.70696795
C      -0.11321999      1.29193800      0.59349405
C       0.34735432     -0.11390136      0.11740101
C       1.40221397     -0.24408166     -0.97242698
N       2.76583801      0.15320068     -0.60980756
H      -1.51986086     -2.06298276      0.93840535
H      -2.53084741     -1.92413716     -0.33464969
H      -1.32383647     -0.15987420     -1.26796187
H      -1.76783931      0.37375387      1.71405120
H      -2.37985182      1.37967293      0.38711988
H      -0.02450634      2.03174134     -0.20495137
H       0.34145968      1.69895738      1.49520373
H       0.64333688     -0.71521911      0.98488844
H       1.43199682     -1.28085684     -1.31763832
H       1.10030389      0.35791834     -1.83547193
H       3.10356112     -0.41072949      0.16221587
H       2.77942234      1.11551831     -0.29095744
