13
b3lypvtz=-242060.29887539
C      -3.16961762     -0.23086558     -0.00003068
C      -1.92963446      0.26261806     -0.00002063
N      -0.77458313     -0.50078415      0.00006155
C       0.51578348     -0.01512788      0.00001990
O       0.58527784      1.33919219      0.00003459
C       1.61148332     -0.78554923     -0.00002221
F       2.83025158     -0.15267769     -0.00002451
H      -3.37187916     -1.29456289      0.00002041
H      -4.01511594      0.43820751     -0.00008921
H      -1.74641283      1.32634116     -0.00007101
H      -0.87435287     -1.50183496      0.00009383
H       1.51963375      1.58253799     -0.00000331
H       1.65905004     -1.85999251     -0.00004772
