14
b3lypvtz=-224605.06554333
N       2.45501962     -0.84613426     -0.48642445
C       1.56786596     -0.05592856     -0.02221345
N       1.61860561      1.31375352      0.07563724
C       0.31867969     -0.66624698      0.59457235
N      -0.85150509      0.16721238      0.37964838
C      -1.88308261     -0.36940732     -0.08659343
O      -2.99996348      0.36453840     -0.30570351
H       3.27104291     -0.33736279     -0.82776903
H       0.72858985      1.77744415      0.18180486
H       2.30658204      1.79750611     -0.47692274
H       0.22087898     -1.68223038      0.20235919
H       0.49241867     -0.73686086      1.67321223
H      -1.96703935     -1.43181792     -0.34289418
H      -3.68820378     -0.20100750     -0.66967448
