15
b3lypvtz=-191201.02212447
C      -2.47368106     -0.33250925     -0.58954946
N      -1.12070087     -0.49371715     -1.08939262
C      -0.17573861      0.06719696     -0.44809803
C       1.23386018     -0.03868071     -1.01923200
C       2.28670204     -0.19865063     -0.02238372
C       3.13978726     -0.31357166      0.81386531
N      -0.29282014      0.85729458      0.67480805
H      -3.16151742     -0.88355972     -1.22868983
H      -2.79286504      0.71784894     -0.58243512
H      -2.59418404     -0.72133753      0.43203761
H       1.23001190     -0.87470440     -1.71695727
H       1.43312996      0.86541606     -1.60405084
H       3.90501701     -0.43025886      1.54007865
H       0.53497236      0.97440419      1.23704959
H      -1.15197356      0.80482919      1.19512651
