17
b3lypvtz=-194353.71905981
C       2.13365147      0.21434670     -0.00000153
C       1.09095742     -0.17074368      1.08112757
C      -0.01254543     -0.10704136      0.00000241
C       1.09094885     -0.17071177     -1.08113370
C      -1.01744873      1.06269493      0.00002121
O      -2.14415775      0.15705582     -0.00000309
C      -1.26541186     -0.99223494     -0.00000860
H       3.07848699     -0.32670306     -0.00001324
H       2.34738093      1.28311086      0.00001345
H       0.97965091      0.48986363      1.94153472
H       1.23673021     -1.19031374      1.44291003
H       1.23671869     -1.19027126     -1.44294715
H       0.97963523      0.48992083     -1.94152051
H      -1.00678408      1.69579342     -0.89254369
H      -1.00679202      1.69575443      0.89261403
H      -1.40438138     -1.61059177      0.89241544
H      -1.40437645     -1.61058002     -0.89244136
