12
b3lypvtz=-223866.9811253
C       1.90232381     -0.16573702      0.11412866
C       0.41314763     -0.20965646      0.04825986
N      -0.37948924      0.89968441     -0.13928660
C      -1.72487733      0.51278274     -0.15229094
O      -2.71224642      1.20362746     -0.29301227
N      -1.60597512     -0.84255892      0.03584600
N      -0.30427932     -1.28189718      0.15787120
H       2.25520509     -0.55023194      1.07084052
H       2.26810497      0.85353676     -0.00183313
H       2.33939033     -0.77871050     -0.67391811
H      -0.08346951      1.85250994     -0.25322790
H      -2.36783490     -1.49334929      0.08662272
