10
b3lypvtz=-284683.869046
C      -2.04359026     -0.41658789     -0.24516660
C      -0.62154882     -0.12681718     -0.27032069
C       0.55263207      0.11248887     -0.29130089
C       1.97807564      0.40318824     -0.31687257
F       2.25808029      1.57779703      0.28282450
F       2.44881323      0.47833033     -1.57803213
F       2.69217713     -0.54781969      0.31824969
H      -2.21713091     -1.48783637     -0.13219612
H      -2.52020582     -0.08977294     -1.17065449
H      -2.52720255      0.09692960      0.58726931
