12
b3lypvtz=-226234.97292038
C      -1.34477910      0.08078181     -0.24584558
C      -0.04153909     -0.66048259     -0.02777440
N       0.26892154     -1.89785944     -0.00792448
C       0.94073760      0.38322743      0.18525306
C       0.32026982      1.57215910      0.10701812
O      -1.02413002      1.48371242     -0.14394385
O       2.24207639      0.10667886      0.41710296
H      -1.76682550     -0.10557169     -1.23429633
H      -2.08964425     -0.15884501      0.51417807
H      -0.52405636     -2.51379098     -0.17292893
H       0.70901109      2.57166653      0.20939581
H       2.30995788     -0.86167643      0.39976554
