15
b3lypvtz=-191209.58910343
C       0.95146960      1.93445626     -0.20882763
C      -0.01193872      1.14577240      0.25575242
N      -0.16962129     -0.23454911      0.03073824
C       0.88887880     -1.15060162     -0.07026114
C       2.19571985     -0.95523128      0.09112300
C      -1.47255764     -0.74915233     -0.01831747
N      -2.57731111     -0.13190840     -0.07060758
H       0.95646747      2.97793080      0.06945526
H       1.73224475      1.58879792     -0.86798162
H      -0.79025636      1.55810539      0.88722122
H       0.53064717     -2.14588138     -0.29926852
H       2.85495374     -1.80558282      0.00389465
H       2.63937207     -0.00214169      0.32576640
H      -1.48379540     -1.83659333     -0.00431491
H      -2.46943494      0.87909819     -0.12261833
