17
b3lypvtz=-171056.36753086
C      -2.18537428     -1.72075478      0.02763237
C      -1.61526550     -0.66176909      0.04965084
C      -0.89615347      0.57241286      0.10061123
C      -1.49261046      1.72523026     -0.22206707
C       0.55371670      0.49482279      0.52932313
C       1.45108206     -0.25814358     -0.46305930
C       2.90032836     -0.35030957      0.01144665
H      -2.70213702     -2.64743852      0.00303715
H      -0.95054212      2.66064939     -0.17832815
H      -2.52741760      1.76107807     -0.53190844
H       0.93082283      1.51050609      0.66746716
H       0.60837668     -0.00191710      1.50308943
H       1.40845975      0.24626853     -1.43217152
H       1.04981913     -1.26172740     -0.61981312
H       3.33670387      0.64108453      0.15248578
H       3.51899842     -0.88424229     -0.71129440
H       2.97083664     -0.88035719      0.96385328
