16
b3lypvtz=-202053.82336869
C       0.43118552     -1.86514792      0.03726369
C       0.90170603     -0.42741791     -0.01384023
N       2.14615373     -0.11375498     -0.05658535
C      -0.07022104      0.67587330      0.02572090
N       0.48788235      1.99075370      0.08416641
C      -1.42122097      0.58229786      0.06294308
N      -2.27626745     -0.49261293     -0.12423225
H      -0.18799153     -2.05107595      0.91820820
H      -0.14764033     -2.12715021     -0.85180499
H       1.28627396     -2.53827067      0.08578813
H       2.73689839     -0.94223717     -0.05002955
H       0.28345608      2.51943800     -0.75385641
H       1.49568150      1.90120400      0.15220539
H      -1.95000087      1.52186104      0.17426506
H      -3.18970676     -0.37671355      0.28247926
H      -1.91369260     -1.42024861      0.00436868
