17
b3lypvtz=-171084.43237125
C      -2.50465093     -0.63974268     -0.00000217
C      -1.25944021     -0.18317308      0.00000148
C      -0.84793823      1.28416314      0.00000011
C       0.65571990      1.22151806     -0.00000365
C       1.12705588     -0.02449960     -0.00000069
C       2.55797006     -0.45204045     -0.00000176
C       0.00158177     -1.03422884      0.00000580
H      -3.35570670      0.03016481     -0.00000582
H      -2.72235271     -1.70072501     -0.00000154
H      -1.24049874      1.81367561      0.87505563
H      -1.24050391      1.81367565     -0.87505294
H       1.27582573      2.10899540     -0.00000788
H       2.78565778     -1.06618124     -0.87662547
H       3.23369721      0.40315651     -0.00001347
H       2.78566457     -1.06616247      0.87663342
H       0.05011489     -1.69264786      0.87496306
H       0.05011363     -1.69265893     -0.87494308
