14
b3lypvtz=-224600.98896568
N       1.39623892     -1.45289026     -0.32470065
C       1.18237592     -0.23253534     -0.02581892
N       2.12337931      0.73599518      0.27703009
C      -0.23703334      0.26606193     -0.07476383
N      -0.57845584      1.46025925     -0.34124112
C      -1.32852205     -0.73633235      0.20163161
O      -2.60734734     -0.16471934      0.11156690
H       2.38510947     -1.69754259     -0.27421106
H       1.83527232      1.48298733      0.88913096
H       3.06332962      0.41273422      0.44224756
H       0.21527127      2.06136264     -0.55364852
H      -1.16490367     -1.15935234      1.20130055
H      -1.21318211     -1.56689541     -0.50172236
H      -2.46818648      0.76719508     -0.12064921
