15
b3lypvtz=-214484.63011662
C       3.27820767      0.30778902     -0.10329996
N       2.07307416     -0.48338852      0.07103790
N       0.93182640      0.23576500      0.20285358
C      -0.18764266     -0.30673410     -0.07688575
C      -1.43816216      0.44155525      0.12617824
C      -2.64215969      0.16097689     -0.66806985
O      -2.54554713     -0.30534930      0.67512001
H       3.30565611      0.85732195     -1.05195366
H       3.34816481      1.02538130      0.71208940
H       4.14034001     -0.35700878     -0.05609688
H       2.00433649     -1.28514601     -0.55004589
H      -0.27036385     -1.33413163     -0.44717629
H      -1.30893794      1.43484739      0.54240014
H      -3.36318968      0.95459969     -0.83922525
H      -2.61070355     -0.61093815     -1.43186575
