11
b3lypvtz=-218010.60875578
C      -2.48313936     -0.93605878     -0.00000047
C      -1.44844448     -0.09997232     -0.00000028
F      -1.67024820      1.23362814     -0.00000048
C      -0.05264244     -0.47404568     -0.00000007
C       0.95629591      0.41026296      0.00000003
C       2.31939445      0.01447482      0.00000017
N       3.43370559     -0.28522116      0.00000034
H      -3.49736716     -0.56709127     -0.00000078
H      -2.31423746     -2.00154585     -0.00000039
H       0.15170532     -1.53642341      0.00000000
H       0.75831284      1.47396555     -0.00000007
