15
b3lypvtz=-170283.08252964
C      -2.80287743     -0.71593555     -0.44822836
C      -1.92441122     -0.09378508      0.08094770
C      -0.84947829      0.66346730      0.71891289
C       0.49768919      0.50884918      0.02367782
C       1.10459194      1.56135733     -0.52479059
C       1.05917917     -0.85207263     -0.00178843
C       2.35038139     -1.15925831      0.09971716
H      -3.58335080     -1.26135526     -0.91675912
H      -1.12212874      1.72021145      0.74788833
H      -0.76024819      0.33305760      1.75955955
H       0.67345750      2.55268950     -0.47510077
H       2.04278611      1.45916463     -1.05312357
H       0.33368701     -1.65579906     -0.08323797
H       3.11032108     -0.39940516      0.23251275
H       2.68541030     -2.18713695      0.06321661
