20
b3lypvtz=-205979.9269919
C       2.28918925     -0.83850129     -0.04909725
C       0.84576537     -0.78558526     -0.55063902
C      -0.01519769      0.35570090      0.02561867
C       0.55707703      1.73059305     -0.30144467
O      -0.03831836      0.28145339      1.46215045
C      -1.46606331      0.27335735     -0.51520655
N      -2.27590544     -0.87172037     -0.11685955
H       2.32306683     -0.84215221      1.04034380
H       2.87178233      0.01482444     -0.39742225
H       2.78684114     -1.74089797     -0.40740201
H       0.83436457     -0.71126743     -1.64210394
H       0.35624349     -1.73523117     -0.30742132
H       0.61000248      1.88161293     -1.38089301
H      -0.07633698      2.50846352      0.12571954
H       1.55633235      1.84848795      0.11424106
H      -0.38596334     -0.58317380      1.70696537
H      -1.43500650      0.30531438     -1.60769544
H      -1.99227555      1.17169770     -0.18672467
H      -2.45260725     -0.88348632      0.87903838
H      -1.87012941     -1.75697379     -0.38848458
