17
b3lypvtz=-194370.49147816
C      -2.87822057      0.35451368     -0.29441219
C      -1.69757888      0.41392930      0.30901948
C      -0.73416661     -0.73023301      0.41393165
C       0.62273457     -0.48181282     -0.27597161
O       1.38495306     -1.69471869     -0.31516053
C       1.41112248      0.62352859      0.36856324
C       1.78821597      1.74410501     -0.23126498
H      -3.53359017      1.21421526     -0.34367313
H      -3.23436831     -0.55807380     -0.75857375
H      -1.38244744      1.35091765      0.75774711
H      -0.53885632     -0.95052762      1.47178010
H      -1.16639168     -1.63002025     -0.02720207
H       0.44426689     -0.23421889     -1.32341480
H       1.58548365     -1.96078639      0.58892314
H       1.68211420      0.45591555      1.40969056
H       2.36094520      2.50240784      0.28647405
H       1.53699695      1.94368658     -1.26620327
