18
b3lypvtz=-181901.4894773
C       2.00754008     -0.60850279     -0.49889667
C       0.71487577     -0.11547818      0.10016586
C       0.64636059      1.22158704      0.79796855
C      -0.10189010      1.00498018     -0.49738730
C      -1.57445321      0.61889445     -0.40703981
C      -1.52404656     -0.88670886     -0.05486732
N      -0.21002988     -1.14437278      0.56423408
H       2.61636378     -1.11533819      0.25339256
H       2.59471673      0.21646937     -0.90647307
H       1.80996649     -1.32203605     -1.30100730
H       0.06796324      1.29616774      1.71131362
H       1.52542915      1.85342649      0.77203317
H       0.25037773      1.52618052     -1.37747274
H      -2.09406236      1.19482309      0.36285526
H      -2.09405813      0.79665300     -1.34967729
H      -1.60779187     -1.47894088     -0.97052127
H      -2.32800821     -1.20564746      0.60954352
H      -0.28271124     -1.13533668      1.57318216
