20
b3lypvtz=-182669.96882272
C      -1.80654345      1.43697137      0.11574038
C      -1.61630273      0.02362460     -0.43462501
C      -2.60818722     -0.95884531      0.21234475
C      -0.21000488     -0.50690756     -0.31877383
C       0.83878060      0.08687294      0.23919490
C       2.20800100     -0.51706899      0.34414593
N       3.21124090      0.32366253     -0.33256590
H      -1.60953161      1.47275478      1.18969026
H      -2.83321507      1.77104514     -0.04254322
H      -1.14358326      2.15223406     -0.37296357
H      -1.85099418      0.05023331     -1.50678029
H      -2.44202982     -1.02009352      1.29015652
H      -3.63838684     -0.63827507      0.04569384
H      -2.49839442     -1.96367106     -0.19961722
H      -0.06814345     -1.49964384     -0.74214759
H       0.73317229      1.07966325      0.66841347
H       2.21009168     -1.49752359     -0.13643112
H       2.43934458     -0.68333804      1.40843273
H       4.13593702     -0.07157727     -0.20276088
H       3.23486285      1.24379727      0.09385985
