16
b3lypvtz=-204422.50638428
C      -2.62597998     -0.91834372     -0.30049180
C      -1.43930146     -0.87912057      0.29221934
C      -0.53229278      0.32374645      0.43266358
C      -1.12594136      1.63416311     -0.09538273
C       0.78103820      0.02905739     -0.24407933
N       1.84374549     -0.07087744      0.43909368
O       2.95763433     -0.35067354     -0.37414585
H      -3.07939982     -0.04716703     -0.75479196
H      -3.19471189     -1.83770489     -0.34592488
H      -1.03959314     -1.79071994      0.72665096
H      -0.30642948      0.44198344      1.49671782
H      -1.31630380      1.58414494     -1.16910180
H      -0.43692741      2.45923006      0.08463631
H      -2.06820025      1.86184802      0.40403846
H       0.79684112     -0.10185334     -1.32676315
H       3.67767423     -0.39334792      0.26300936
