17
b3lypvtz=-215282.49359718
C       2.85725387      0.41545145     -0.31674362
C       1.66692384     -0.23625428      0.35582450
O       0.54415453     -0.14605557     -0.51994736
C      -0.60355567     -0.74972109     -0.03414663
C      -1.76540421     -0.08223235     -0.01564482
N      -3.01048547     -0.69300404      0.21214069
N      -1.87222572      1.29164703     -0.25424882
H       2.65989150      1.46910409     -0.51763559
H       3.08037826     -0.07705649     -1.26359263
H       3.73763830      0.34763686      0.32427598
H       1.43146032      0.25348736      1.30799497
H       1.87627106     -1.29171585      0.57186381
H      -0.52397670     -1.78864744      0.26697772
H      -2.93207143     -1.67924030      0.41395998
H      -3.53507374     -0.22417457      0.94102848
H      -0.99471154      1.68156899     -0.56783159
H      -2.61646721      1.50920619     -0.90427508
