14
b3lypvtz=-201274.41122691
C      -3.35628427     -0.41960089     -0.01921813
C      -2.26219609      0.06940540     -0.00740085
C      -0.93270534      0.66796738      0.02844470
N       0.10309852     -0.35238015     -0.04635508
C       1.44285140      0.01634302     -0.00657250
N       1.93576209      1.19395482     -0.03586820
N       2.28497497     -1.09122655      0.07764009
H      -4.32722150     -0.84818252     -0.03563312
H      -0.84287856      1.28169547      0.93555586
H      -0.82015554      1.34590421     -0.82221635
H      -0.11450673     -1.20367688      0.44866721
H       1.22828839      1.91686843      0.03089049
H       2.02636424     -1.86254335     -0.52003958
H       3.25079741     -0.82313939     -0.03641453
