18
b3lypvtz=-205194.48895195
C      -2.79922449     -0.53355652      0.06186597
C      -1.43885947      0.03669871     -0.34831004
C      -1.30509121      1.50272064      0.07210809
C      -0.29852889     -0.82901552      0.22943861
C       1.05364483     -0.47226328     -0.29696139
N       1.97568299     -0.09385667      0.48719456
O       3.16499152      0.18786515     -0.21422853
H      -3.61524733      0.05455684     -0.36166701
H      -2.91915312     -1.56479848     -0.27599215
H      -2.91344689     -0.52322726      1.14889249
H      -1.37074050     -0.01152051     -1.44110215
H      -0.34431108      1.92413403     -0.22542221
H      -2.09291033      2.10967395     -0.37760277
H      -1.38621339      1.60172823      1.15771202
H      -0.28487435     -0.75304621      1.31887998
H      -0.49819287     -1.87692183     -0.02023333
H       1.24158936     -0.53944237     -1.36990094
H       3.76472422      0.45530211      0.48921580
