15
b3lypvtz=-214528.6770962
C       2.28251717     -0.54744672      0.28850546
C       1.49194159      0.45815690     -0.09062448
N       0.09710097      0.54030359     -0.10729346
C      -0.49292851      1.88135682     -0.07341232
C      -0.73130130     -0.57154150     -0.04984020
N      -0.48606983     -1.79060407     -0.30391690
O      -1.98750017     -0.21625291      0.32985867
H       3.35166205     -0.41511154      0.21836889
H       1.92205267     -1.48158127      0.68958968
H       1.95012164      1.37710884     -0.43585414
H      -0.69529018      2.21119105      0.94790691
H       0.20764553      2.57762326     -0.53137316
H      -1.42278994      1.89998098     -0.63331151
H       0.45604909     -1.93610647     -0.64312762
H      -2.49944578     -1.03509096      0.28328218
