12
b3lypvtz=-249730.82428902
C       1.75259688      0.41921679     -0.01578089
N       3.01099790      0.28740683      0.05564654
N       0.81390808     -0.58292102     -0.22080361
C      -0.55326514     -0.39455245     -0.19267317
N      -1.15056830      0.63531085      0.19557709
N      -2.52705550      0.73926394     -0.00992029
F      -1.19082655     -1.49760488     -0.67078504
H       1.29798389      1.40040688      0.07962525
H       3.30885490     -0.68518233     -0.03748895
H       1.12944384     -1.53242978     -0.34074800
H      -2.89071962      1.36744909      0.69193064
H      -3.00135039     -0.15636393      0.05314161
