19
b3lypvtz=-192753.36222086
C       2.47840865     -0.68752293     -0.02378379
N       1.03416984     -0.65655122     -0.08237392
C       0.30716435      0.50492250      0.02421918
N       0.78699463      1.69060791      0.07599253
C      -1.20503472      0.33093231      0.04564614
C      -1.68388000     -0.50148651      1.24344089
C      -1.73512346     -0.23057132     -1.28175089
H       2.81353628     -1.72097167     -0.08736308
H       2.86694785     -0.25529619      0.90494693
H       2.91842609     -0.13994337     -0.86119153
H       0.55033910     -1.52520136      0.05417265
H       1.80516065      1.69477503      0.05270289
H      -1.58437295      1.34542084      0.16303158
H      -1.37605092     -1.54828562      1.17080999
H      -1.29877251     -0.10168845      2.18234036
H      -2.77392454     -0.49332457      1.29546489
H      -1.39607393     -1.25422826     -1.45555067
H      -2.82661380     -0.24092027     -1.27929885
H      -1.40451960      0.37926815     -2.12307132
