15
b3lypvtz=-214521.98096771
O       2.95238498      0.70418587     -0.31071035
C       2.43940962     -0.13626938      0.39790556
N       1.10830373     -0.39490754      0.48466881
C       0.10075651      0.31158528     -0.27278885
C      -1.10292780      0.81055241      0.56879997
N      -1.85055653     -0.40232930      0.15920987
C      -0.92857500     -0.60543008     -0.98376760
H       3.02835922     -0.79316705      1.06251846
H       0.80784038     -1.12205153      1.11423961
H       0.61733737      1.04398481     -0.88295500
H      -1.50640215      1.75081048      0.17772336
H      -0.94242027      0.91066617      1.64368308
H      -2.82550470     -0.26563267     -0.07496259
H      -1.26966254     -0.17108358     -1.92969135
H      -0.62824283     -1.64081391     -1.15407298
