14
b3lypvtz=-203672.83988584
C       1.59705493     -0.75717805      0.39939951
C       0.33528293     -0.15390880     -0.13083652
C      -0.19052410      1.26550338      0.15764567
C      -1.60498044      0.62792143      0.20972609
O      -2.66830778      1.03412648      0.58321357
C      -1.07684480     -0.73247932     -0.14482398
N      -0.24276178     -0.63855356     -1.36060207
H       1.63896982     -1.81892448      0.15955479
H       2.46918001     -0.27522587     -0.04900685
H       1.66498511     -0.63530659      1.48157639
H       0.06611783      1.66295229      1.14115250
H       0.01947082      2.02041511     -0.60198710
H      -1.46187573     -1.70070692      0.14313441
H      -0.54586682      0.10126491     -1.98814640
