15
b3lypvtz=-191190.69260944
C       3.03209216     -0.59466554      0.00009503
C       2.06037603      0.31510010      0.00000918
N       0.71181957     -0.04229068      0.00017172
C      -0.15928671      0.88038726      0.00001774
N      -1.55784203      0.66867359      0.00019240
C      -2.03404007     -0.53214714     -0.73414166
C      -2.03382847     -0.53250237      0.73404432
H       4.07084484     -0.29761538     -0.00003712
H       2.80024248     -1.65088717      0.00029972
H       2.30039688      1.37995925     -0.00019119
H       0.10497043      1.94265684     -0.00025782
H      -2.95291475     -0.37179005     -1.28249828
H      -1.27385207     -1.12336721     -1.22769677
H      -2.95256027     -0.37238906      1.28271206
H      -1.27352002     -1.12397046      1.22711168
