18
b3lypvtz=-205200.79852833
C       2.72273586     -0.97816453      0.05727727
N       1.47045483     -0.35035080     -0.31972419
C       1.21385706      0.94703475      0.06645054
C       0.01433687      1.54302762      0.14736966
C      -1.29701484      0.89723094     -0.17285185
O      -1.35156647     -0.44374836      0.32600926
C      -2.57119233     -1.08569814      0.02161984
H       2.79288256     -1.21334586      1.12758774
H       3.55523218     -0.32094682     -0.19842600
H       2.85051768     -1.90352099     -0.50420812
H       0.65861459     -0.94828834     -0.26311654
H       2.10342332      1.52542021      0.29340776
H      -0.01167641      2.58691857      0.42501888
H      -2.11814954      1.47858509      0.26554076
H      -1.47400422      0.86726282     -1.26108223
H      -2.73611241     -1.15150902     -1.06139967
H      -2.52465090     -2.09184665      0.43542471
H      -3.42267482     -0.55778850      0.46885619
