9
b3lypvtz=-233110.56890578
C       0.57178439     -0.12519076     -0.00109208
N       1.16207075     -1.22715234     -0.11541282
C      -0.89851545      0.11079773     -0.00852310
N      -1.87415953     -0.67358297     -0.12311609
O      -1.05410971      1.45574032      0.14474052
N       0.28886900      2.03170089      0.24380722
N       1.15992771      1.17715464      0.16467313
H       2.17573926     -1.12050461     -0.07867437
H      -1.53160643     -1.62896289     -0.22640239
