15
b3lypvtz=-191154.09645145
C      -0.98783245     -0.65359532     -0.64715282
N      -1.70783909      0.11019708      0.53406327
C      -0.43412457      0.58309103      0.99014867
C       0.16362867      1.33679274     -0.19853319
C       0.49298914     -0.06811515     -0.71950678
C       1.35998296     -0.49222938      0.52560865
N       0.35844884     -0.20541010      1.62436238
H      -1.01098243     -1.72391647     -0.44785988
H      -1.52387154     -0.42789341     -1.56661623
H      -2.01524293     -0.61143098      1.18192415
H       1.03315033      1.93957095      0.05003523
H      -0.56410706      1.89899262     -0.77624209
H       0.94940063     -0.18438110     -1.70380752
H       2.30894100      0.05604559      0.55422463
H       1.57735850     -1.55761810      0.59925153
