11
b3lypvtz=-236309.20764831
N      -2.49662092     -0.35384442     -0.02039290
C      -1.33401499     -0.30903060     -0.51185730
C      -0.11357720      0.28372703      0.12994295
N       0.04325878      0.72374177      1.29356593
O       0.92162122      0.36692648     -0.79278967
C       2.17504447     -0.11034584     -0.49390545
O       2.46796856     -0.78890079      0.43492474
H      -2.54065158      0.08113144      0.90561917
H      -1.16881733     -0.72856781     -1.50291167
H      -0.80226936      0.61968432      1.85276988
H       2.84825834      0.21547841     -1.29486567
