18
b3lypvtz=-205219.59425685
C       1.94596382     -0.81829834      0.00006301
C       0.68245666      0.04190245      0.00000669
C       0.63079148      0.88721144     -1.27531548
C       0.63074388      0.88730250      1.27526731
O      -0.38403620     -0.96182554      0.00001602
C      -1.70775221     -0.68694350     -0.00000795
N      -2.36696380      0.38980320     -0.00003150
H       1.97172434     -1.45598381      0.88338062
H       2.83472207     -0.18667586      0.00005482
H       1.97175656     -1.45605259     -0.88320390
H      -0.23710473      1.54210508     -1.31807646
H       0.61111336      0.24107714     -2.15307072
H       1.52280440      1.51251080     -1.33284837
H      -0.23713633      1.54222281      1.31793950
H       1.52276928      1.51258413      1.33279982
H       0.61100666      0.24123185      2.15306804
H      -2.24098182     -1.63565315     -0.00000153
H      -1.78917343      1.22316537     -0.00003393
