19
b3lypvtz=-192736.4319023
C       2.92003473     -0.33857077      0.10787666
N       1.59202913     -0.71006221     -0.36477204
C       0.47089242      0.06067521     -0.01548216
C       0.67678241      1.54634848     -0.13095254
C      -0.69117369     -0.52681892      0.32049066
C      -2.03085809      0.11361601      0.54355811
N      -3.07201540     -0.22217716     -0.44931755
H       3.00594474     -0.29806035      1.20271480
H       3.63722325     -1.07020734     -0.26267314
H       3.21317881      0.63181914     -0.29036063
H       1.41366623     -1.69612065     -0.24047686
H       1.34103805      1.92006789      0.65192054
H       1.13651934      1.79190030     -1.09093927
H      -0.25960281      2.08974556     -0.05108723
H      -0.69328452     -1.61387106      0.38864718
H      -2.42550607     -0.18371729      1.51946483
H      -1.94846742      1.19988268      0.57654413
H      -2.71289738     -0.04343249     -1.38147091
H      -3.26530670     -1.21765704     -0.41655758
