19
b3lypvtz=-171830.88942857
C      -1.60207761      1.44234808      0.14428590
C      -0.91565310      0.31285506      0.08283123
C      -1.30059922     -1.14780457     -0.05149246
C       0.16831008     -1.44850975     -0.46759570
C       0.57945698     -0.00251437     -0.02495291
C       1.27436416      0.01079444      1.34146597
C       1.36779228      0.81330299     -1.04453400
H      -2.68545301      1.44848646      0.16202520
H      -1.10773135      2.40613624      0.17635575
H      -2.07822296     -1.38110490     -0.77889191
H      -1.57737427     -1.60669900      0.90001577
H       0.27428479     -1.59775598     -1.54172275
H       0.66529202     -2.26727876      0.05193686
H       1.36180543      1.03041306      1.72180528
H       2.27960788     -0.41117769      1.26356696
H       0.72001076     -0.57250546      2.07872020
H       0.87337226      0.81442299     -2.01684462
H       1.47231140      1.85151747     -0.72106386
H       2.37296949      0.40330970     -1.17292693
