16
b3lypvtz=-227788.01949204
C      -1.08812791      0.23213632      1.40826084
C      -0.56831358     -0.06429020      0.00190379
C      -1.25419032      0.80497919     -1.04935132
O      -0.83639502     -1.45858093     -0.23890452
C       0.95352447      0.21927793     -0.01456505
N       1.74077576     -0.88339813     -0.07489732
O       1.38649798      1.35673573      0.03500501
H      -0.84746435      1.25572744      1.68894555
H      -2.16840733      0.09060714      1.43788896
H      -0.63278559     -0.44537817      2.13111665
H      -0.90334540      0.55055811     -2.05332928
H      -1.02578565      1.85452056     -0.87855474
H      -2.33346825      0.65678437     -1.00660645
H      -0.87984397     -1.59893685     -1.19028649
H       1.32178990     -1.79302176      0.00779398
H       2.73407726     -0.76757475      0.02915239
