15
b3lypvtz=-216938.2079163
C      -2.81119930      0.06275335      0.42272818
C      -1.35095640     -0.14567802      0.67002894
C      -0.40901812     -0.17359077     -0.26623469
C       1.03076966     -0.42831160      0.01559631
O       1.79673971      0.71844574     -0.45955534
C       3.12690957      0.60913285     -0.37762451
O       3.73636803     -0.33104168      0.05285206
H      -3.17760660      0.93736374      0.96703182
H      -3.02390514      0.20525264     -0.63683804
H      -3.39483655     -0.79142506      0.77685487
H      -1.05627661     -0.28882518      1.70690295
H      -0.67443050     -0.02688575     -1.30905163
H       1.40163168     -1.31259071     -0.50592142
H       1.21959845     -0.56120201      1.08077043
H       3.58621211      1.52660246     -0.76953993
