14
b3lypvtz=-201275.88419873
C       2.35157528     -0.63396575      1.37492984
C       1.46821527     -0.29449516      0.62261445
C       0.45663721      0.11829376     -0.27403692
C      -0.86726305     -0.00650969      0.03880524
N      -1.32369830     -0.40393221      1.28256775
N      -1.86001584      0.25984251     -0.88217657
N       0.79307207      0.69426426     -1.55487568
H       3.13198028     -0.93294898      2.02795924
H      -0.59072129     -0.71939444      1.90074578
H      -2.10574621     -1.04189894      1.25174218
H      -1.48205722      0.70669706     -1.70723657
H      -2.66655950      0.73226754     -0.50056101
H       1.40598826      1.49452550     -1.44402384
H       1.28859301      0.02725455     -2.13645391
