16
b3lypvtz=-181135.46622279
C      -0.60605129     -1.12984580      0.20970702
C      -1.94930273     -0.46945667      0.00408429
C      -1.76790916      0.74503076     -0.51528259
N      -0.42034558      1.05708515     -0.75329145
C       0.36887408      0.02297439     -0.07640717
C       1.44851334      0.41613614      0.89210350
C       1.79841507     -0.19562589     -0.45154840
H      -0.45199995     -1.95460381     -0.49607871
H      -0.47054275     -1.54174726      1.21326841
H      -2.90106115     -0.94549632      0.17456639
H      -2.52544234      1.45764593     -0.80807565
H      -0.15283657      2.00628838     -0.53041038
H       1.65310373      1.47091459      1.02999753
H       1.58034334     -0.18359249      1.78355200
H       2.17298359     -1.21097767     -0.47205319
H       2.22315836      0.45537056     -1.20403160
