15
b3lypvtz=-214498.81043139
C      -0.99163894     -1.26962425      0.29603688
C      -0.89181141      0.28093073      0.42164486
C       0.59112887      0.07403101      0.19731982
C       1.65834915      0.85984327      0.12192140
O       2.94511794      0.40476803     -0.05150319
N       0.49645521     -1.35315913      0.18959931
N      -1.57414386      1.01249149     -0.64537213
H      -1.38206909     -1.80491810      1.16175881
H      -1.52394962     -1.56771988     -0.60631094
H      -1.13709100      0.64544053      1.42553560
H       1.59770576      1.93628639      0.18536894
H       2.97163454     -0.52937813      0.18901949
H       0.85267808     -1.82440137     -0.63381736
H      -2.51925604      1.25170396     -0.36560700
H      -1.09310958      1.88370544     -0.83433403
