13
b3lypvtz=-242071.49172423
C      -1.97463335      0.01899942     -0.84968479
C      -0.68813449      0.62943196     -0.39617273
C       0.32438557     -0.00103429      0.21902585
O       0.34624842     -1.33183486      0.53916763
N       1.44847433      0.73189322      0.56815085
C       2.48581391      0.33448917      1.13949911
F       2.76098802     -0.91784558      1.55712284
H      -2.05561440     -1.04963182     -0.63641940
H      -2.83106796      0.50266428     -0.37158395
H      -2.10864119      0.13726273     -1.92863896
H      -0.54060893      1.68464720     -0.57347508
H      -0.47885268     -1.73738350      0.25201535
H       3.31154274      0.99844208      1.36689329
