16
b3lypvtz=-227737.6083302
N       1.72370913     -1.09921169      0.24480134
C       0.42831044     -1.24115000     -0.44237886
C      -0.47637123     -0.06259706     -0.13751455
C       0.06284824      1.30966830     -0.49896960
O       1.14495951      1.70269223      0.32736656
C      -1.50399837     -0.18171013      0.90125486
O      -1.84949189     -0.28618633     -0.48702529
H       1.63359409     -1.32417769      1.22883620
H       2.40952939     -1.73363233     -0.14429270
H       0.62300267     -1.25028443     -1.51754503
H      -0.10450384     -2.16798177     -0.20319670
H      -0.73225057      2.04520940     -0.37595041
H       0.35003955      1.30947532     -1.56028355
H       1.76092365      0.95179132      0.33347596
H      -1.86087302      0.71189872      1.40201225
H      -1.59960675     -1.10418087      1.46641350
