16
b3lypvtz=-225353.34245342
C       2.23719577      0.49741065      0.08522168
N       1.00545910      0.55741066     -0.70474396
C       0.01352920     -0.39396790     -0.38383148
C      -1.23652226     -0.03094232     -0.04569300
N      -1.68227313      1.29468423     -0.07870509
N      -2.21804221     -0.94531198      0.34881285
O       0.29461337     -1.76561752     -0.55656711
H       2.91833751      1.28222814     -0.24617632
H       2.76764318     -0.46149866      0.01174876
H       1.99993124      0.67759435      1.13478240
H       1.22920682      0.53583469     -1.69437399
H      -0.90812815      1.92238133     -0.24896450
H      -2.18240557      1.55142048      0.76309791
H      -3.11385894     -0.74368652     -0.07620517
H      -1.93402450     -1.89481042      0.15348109
H       0.80933857     -2.08312920      0.19340678
