9
b3lypvtz=-238149.2057557
C      -0.70112498      0.83362417      0.00100627
C      -1.13074986     -0.49155478      0.01233313
N      -0.26395737     -1.49722514      0.01094263
N       1.03395889     -1.21971703     -0.00154113
C       1.37332736      0.05692024     -0.01182967
N       0.59168015      1.12127814     -0.01149395
F       2.67422420      0.29350816     -0.02409585
H      -1.39913571      1.66296155      0.00201366
H      -2.17822268     -0.75979530      0.02266493
