15
b3lypvtz=-191191.20453167
C      -0.04709980      1.80087359     -0.30387865
C       0.10410615      0.35846207     -0.76024656
C      -0.96872164     -0.69007765     -0.44681096
C      -1.01142834     -1.03046111      0.97845694
N       0.07126539     -1.64669779      0.15613769
C       1.05208153     -0.58722057     -0.03256066
N       2.27399141     -0.53116515      0.23657256
H       0.89483748      2.33407844     -0.43537021
H      -0.32092359      1.86606797      0.74943052
H      -0.81314223      2.31537360     -0.88664582
H       0.35001921      0.32797282     -1.82443795
H      -1.69662918     -1.06423677     -1.15275286
H      -0.73429991     -0.30083453      1.73015188
H      -1.74103757     -1.75946659      1.30430541
H       2.58698107     -1.39266833      0.68764867
