15
b3lypvtz=-216925.00836746
C      -2.65864888      0.22359639      0.29747132
C      -1.23132469      0.43456378      0.68793277
C      -0.16797617     -0.06831711      0.04601062
C       1.20660752      0.18583991      0.45627678
C       2.27293387     -0.49078671      0.01543918
O       3.56932817     -0.26737159      0.36022707
O      -0.36174841     -0.90413065     -1.03589860
H      -3.19625596      1.17455150      0.24751657
H      -3.18742815     -0.39571016      1.02902707
H      -2.73453254     -0.26809512     -0.67035061
H      -1.03187490      1.02327498      1.57500520
H       1.34647269      0.98216741      1.18013837
H       2.19966339     -1.32709646     -0.66691308
H       3.61775182      0.46951977      0.98042693
H       0.35703222     -0.77200594     -1.66352743
