13
b3lypvtz=-242053.07801092
C      -2.80902221     -0.60055039      0.02559152
O      -1.69089329      0.28561718      0.01645633
C      -0.48169892     -0.29954416      0.01899712
C       0.65739525      0.40249949      0.01226273
F       0.59543654      1.75587005      0.00276481
C       2.02335824     -0.11905503      0.01402251
N       2.44738511     -1.31900391      0.02094348
H      -2.81040223     -1.23667643     -0.86290210
H      -2.80723393     -1.22215034      0.92429934
H      -3.69630975      0.02599494      0.02204742
H      -0.44407353     -1.38270262      0.02683741
H       2.76979260      0.67756710      0.00834633
H       1.68448512     -1.99824789      0.02575910
