16
b3lypvtz=-181089.00993313
C      -1.09158593      1.30445685      0.45892787
C      -1.18283389     -0.02057594     -0.29187951
C      -0.07063245     -0.11090706     -1.06083387
C       0.46091195      1.31297432     -1.28006546
C       0.47104329      1.53245583      0.23209230
N       1.34706093      0.38587796      0.63879858
C       1.08447864     -0.77078416     -0.33383041
H      -1.39417712      1.15005327      1.49788040
H      -1.64779955      2.16937690      0.08405500
H      -1.59721411     -0.89101144      0.20490836
H      -0.22725048      1.96222715     -1.81579494
H       1.44717664      1.35036422     -1.73908245
H       0.86586585      2.46228744      0.64568006
H       1.14888135      0.09339264      1.58886463
H       1.97387049     -0.94820154     -0.93701514
H       0.81780440     -1.67948643      0.20479459
