15
b3lypvtz=-219523.52816109
C      -2.06466097      1.31294853     -0.12984358
C      -1.64955075      0.05261608     -0.02240200
F      -2.56443989     -0.89322096      0.34170222
C      -0.34070812     -0.52695715     -0.23709339
C       0.81141264      0.14403513     -0.04906971
N       2.06831001     -0.29821959     -0.36088485
C       3.23617936      0.21102176      0.33569902
H      -3.07421856      1.58372921      0.13952516
H      -1.40027032      2.07847629     -0.49788978
H      -0.32587642     -1.56295986     -0.55754170
H       0.78583639      1.14995502      0.35703311
H       2.13009576     -1.25707579     -0.66643942
H       4.13450957     -0.04115242     -0.22639648
H       3.17529737      1.29798665      0.39599363
H       3.34087793     -0.18139489      1.35411677
