17
b3lypvtz=-194368.29111619
C       2.33769640     -0.69829634     -0.23333896
C       0.87891732     -0.51210393     -0.01963453
C      -0.10014058     -1.24582245      0.51829159
C      -1.15030095     -0.16491630      0.35160098
O      -2.25874239     -0.41506049     -0.50367956
C      -0.02946351      0.67183410     -0.34547639
C       0.31617168      2.03762475      0.23171778
H       2.58828089     -0.62419806     -1.29566920
H       2.67575037     -1.66854375      0.13213202
H       2.91235432      0.07847975      0.27928185
H      -0.13499731     -2.23986024      0.94753669
H      -1.49013192      0.28334227      1.29282446
H      -2.87004464     -1.00320874     -0.04987265
H      -0.24656824      0.75168302     -1.41343775
H      -0.49989992      2.74542907      0.07340987
H       1.20832344      2.45235097     -0.24302877
H       0.50859302      1.97739338      1.30545758
