18
b3lypvtz=-233525.27133652
O      -2.17481626     -0.85846628     -1.06111163
C      -2.05069373      0.27016559     -0.19736289
C      -1.18556921     -0.00032970      1.03162205
C       0.23896286     -0.47501203      0.72685043
C       1.11438101      0.57047000      0.03193135
C       2.54224432      0.11105449     -0.17383015
F       3.16780860     -0.10593796      1.06003650
H      -2.62270113     -1.56173337     -0.58051142
H      -1.61319365      1.05490622     -0.81559530
H      -3.03827473      0.62555894      0.11924992
H      -1.68665312     -0.75232690      1.65113436
H      -1.15407240      0.91349804      1.63497509
H       0.18995817     -1.37167976      0.10364279
H       0.72118581     -0.76753256      1.66127293
H       1.12670459      1.49877404      0.61142999
H       0.70960017      0.81866209     -0.95359351
H       3.13134087      0.86114096     -0.70518339
H       2.58378782     -0.83131182     -0.72595713
