9
b3lypvtz=-289770.20737145
C      -1.41401464     -0.03503473      0.08742652
N      -1.37864585     -1.26462436     -0.02914933
O      -0.42224283      0.93255154      0.11346425
C       0.87513547      0.61085009      0.00052455
N       1.36643073     -0.52744931     -0.13622069
F       1.56029282      1.75134736      0.06206877
F      -2.54161208      0.64137524      0.22294998
H      -0.42387162     -1.60439583     -0.12213661
H       2.37852801     -0.50462001     -0.19892744
