19
b3lypvtz=-171848.86243569
C       1.11606423      0.00000292      1.43417121
C       0.59563928     -0.00000014     -0.01106682
C       1.77474616     -0.00000261     -0.98649843
C      -0.34747317      1.22624442     -0.21884874
C      -1.73055018      0.66439272     -0.02485157
C      -1.73055056     -0.66439171     -0.02484838
C      -0.34747390     -1.22624508     -0.21884318
H       1.72899694     -0.88291337      1.62901338
H       1.72899722      0.88291987      1.62900947
H       0.28939478      0.00000460      2.14732197
H       1.43052154     -0.00000479     -2.02275212
H       2.40460879      0.88132261     -0.84357835
H       2.40460829     -0.88132756     -0.84357444
H      -0.11519825      2.03933702      0.47475981
H      -0.24266255      1.64468172     -1.22663291
H      -2.61147488      1.28620715      0.06884200
H      -2.61147567     -1.28620517      0.06884778
H      -0.24266370     -1.64468682     -1.22662555
H      -0.11519936     -2.03933479      0.47476887
