14
b3lypvtz=-203618.83583066
C       0.99022713      1.34493718     -0.47705384
C      -0.33081166      0.67796301     -0.01629948
C      -1.57682280     -0.22531645     -0.33936862
N      -0.92060683     -1.38218720      0.41707546
C       0.37456440     -0.64008924      0.09080455
C       1.64037899      0.18855051      0.45499904
O       2.53889475      0.17960895      1.22900975
H       1.20166429      2.36291100     -0.15969833
H       1.25210588      1.20506680     -1.52385520
H      -0.51307740      1.04102947      0.99990490
H      -1.67179439     -0.49919529     -1.38877972
H      -2.53534246      0.09699827      0.06254945
H      -1.13215353     -1.26223673      1.40612381
H       0.60477363     -0.97464028     -0.92871178
