13
b3lypvtz=-211364.23609515
C      -2.50956010      0.29061941      0.00000048
N      -1.46806566     -0.71579192     -0.00000254
C      -0.26481580     -0.30504797      0.00000079
N       0.28598816      0.98486038     -0.00000140
H      -0.24967573      1.83224440      0.00003077
C       1.65844632      0.87087172     -0.00000672
N       2.04319182     -0.35891944      0.00000844
N       0.87605587     -1.08253264      0.00000334
H       0.89513834     -2.08473771     -0.00003590
H      -2.47675330      0.94160514     -0.88705440
H      -2.47676203      0.94159576      0.88706286
H      -3.48300427     -0.19792038     -0.00000650
H       2.32730140      1.71427725     -0.00001421
