16
b3lypvtz=-204450.75405583
C      -0.54775922      1.61627238      0.22086842
C      -0.32995572      0.29744687     -0.53510217
C      -1.47385809     -0.72601297     -0.35274301
O      -0.98811811     -1.76463886      0.52663436
C       0.38335036     -1.60303866      0.58750361
C       0.84232032     -0.50348876     -0.00747692
N       2.16612600     -0.08947449     -0.23337398
H       0.30504994      2.28972031      0.10928751
H      -0.69599045      1.43109276      1.28626467
H      -1.42561311      2.14194707     -0.16018766
H      -0.18927403      0.52227048     -1.59583541
H      -2.36711294     -0.29312247      0.09733253
H      -1.74692039     -1.19110490     -1.30346316
H       0.91366180     -2.38482568      1.10844541
H       2.84342019     -0.63424408      0.28276525
H       2.31067347      0.89130099     -0.03101946
