16
b3lypvtz=-204467.47170515
C       2.41816720      0.03943918      0.09403683
C       0.92590917      0.11835432     -0.00790255
N       0.31365238      1.22211919     -0.10034375
C      -1.14510750      1.23331585     -0.13968325
C      -1.77236270     -0.05905760      0.37869990
C      -1.03142147     -1.22969460     -0.23957252
O       0.37930876     -1.13607258      0.01860696
H       2.83635420      1.04122034      0.10798238
H       2.70510459     -0.49305165      1.00245096
H       2.82570244     -0.51919895     -0.75052482
H      -1.46113328      1.42410489     -1.17081452
H      -1.48642511      2.09049278      0.44397294
H      -2.83482671     -0.11419826      0.13304524
H      -1.68258195     -0.10926913      1.46648435
H      -1.34152356     -2.18868743      0.17191697
H      -1.18160347     -1.25452435     -1.32353211
