16
b3lypvtz=-181120.94968845
C       1.83377078      0.11777074     -0.10225444
C       0.88105198     -0.99873748      0.45251596
C      -0.43884201     -0.64589287     -0.24338933
C      -1.86306111     -0.33162906      0.33437155
N      -1.70213308      1.10944747     -0.07821048
C      -0.33377202      0.83371134     -0.39185145
C       0.90235803      1.31486896     -0.30732975
H       2.31496554     -0.20997203     -1.03167210
H       2.63839785      0.34890484      0.59849058
H       0.78507021     -0.87826952      1.53421092
H       1.24542953     -2.00692851      0.25249980
H      -0.54086894     -1.16317418     -1.20316654
H      -2.69171903     -0.85939281     -0.13723325
H      -1.94632626     -0.40957525      1.41927367
H      -2.30840847      1.43379614     -0.82056580
H       1.22408703      2.34507222     -0.27568935
