15
b3lypvtz=-214525.1069187
C       1.85614606      0.10528677     -1.79116851
C       1.48276193      0.38402298     -0.54268583
C       0.60713768     -0.50961040      0.29584099
N      -0.66990853      0.11286523      0.59585983
C      -1.71754735     -0.49914013      0.23662939
N      -2.98181762     -0.05072865      0.53173712
O       1.86055857      1.50092162      0.14251516
H       2.50048495      0.76672527     -2.35763878
H       1.51797823     -0.79671628     -2.27676660
H       1.13163654     -0.69502268      1.23932379
H       0.49927793     -1.47209896     -0.22088998
H      -1.70673869     -1.45886735     -0.29597886
H      -3.04078535      0.90453690      0.84867942
H      -3.73102135     -0.35359473     -0.06642160
H       2.39183700      2.06142042     -0.43379188
