14
b3lypvtz=-203666.44645537
N       3.33906367      1.15865503      0.16507422
C       2.79980219      0.06570981     -0.20556408
C       1.41880974     -0.29240510     -0.09192485
C       0.26529039     -0.63316586     -0.00073607
C      -1.14440145     -0.98641608      0.09500440
C      -2.07030443      0.20225757     -0.21637387
O      -1.93514374      0.66722692     -1.54562225
H       2.64160301      1.78134021      0.57699146
H       3.44585370     -0.68545621     -0.66094200
H      -1.36638033     -1.80104963     -0.59899565
H      -1.35944672     -1.35313871      1.10383693
H      -1.89226675      1.00391467      0.50873223
H      -3.10569183     -0.12197996     -0.11346941
H      -1.03668746      0.99440733     -1.66451108
