15
b3lypvtz=-191216.49126839
C       0.14162822      1.74865058      0.18091091
C       0.50658330      0.45306646      0.20149762
C       1.92013658      0.14773981     -0.14054761
N       2.45655029     -0.98480612     -0.34194392
C      -0.36996705     -0.66568105      0.53713134
C      -1.68951653     -0.77105004      0.28745386
N      -2.51674665      0.15999921     -0.29923584
H      -0.84489855      2.08332499      0.46867272
H       0.85617098      2.51505224     -0.09044831
H       2.56274399      1.02631764     -0.23174833
H       1.76844698     -1.73510757     -0.24996628
H       0.08972565     -1.51660103      1.02235514
H      -2.20233899     -1.67461252      0.59447663
H      -2.06802332      0.89283753     -0.82893466
H      -3.34671490     -0.20270013     -0.73825229
