18
b3lypvtz=-233522.0411813
C       1.96573680      0.96936247      0.68288990
C       1.06410300     -0.16095768      0.19477394
C       1.85234730     -1.30174414     -0.42735165
O       0.16597636      0.31595676     -0.82504859
C      -1.00454677      0.96582868     -0.37500242
C      -2.18401347      0.02922745     -0.23358594
F      -2.01187152     -0.83119127      0.85594155
H       2.56517400      1.35677281     -0.14276730
H       2.63995922      0.61307883      1.46410734
H       1.38495534      1.79404040      1.09877654
H       0.47441548     -0.54724232      1.03067721
H       1.18317240     -2.10224510     -0.74167623
H       2.56940454     -1.70845210      0.28726821
H       2.40021420     -0.94822991     -1.30265339
H      -0.83989203      1.49136502      0.57201667
H      -1.26627696      1.71762689     -1.12621246
H      -2.29177413     -0.58974669     -1.12576445
H      -3.10294075      0.59683789     -0.06327993
