17
b3lypvtz=-217681.67061763
C       2.73492305      0.78027239     -0.00000586
C       1.91188902     -0.49101496      0.00001445
O       0.53216792     -0.14971460     -0.00000858
C      -0.33774108     -1.27871089      0.00000673
C      -1.77337707     -0.85473591     -0.00000517
C      -2.25451672      0.38962345     -0.00000623
O      -1.55779711      1.55081324      0.00000115
H       2.51962514      1.37996473      0.88490055
H       3.79873722      0.53916888      0.00001050
H       2.51964305      1.37992474     -0.88494365
H       2.13636983     -1.09991004     -0.88508604
H       2.13635066     -1.09986956      0.88514766
H      -0.12232132     -1.90126335      0.88176852
H      -0.12231565     -1.90129186     -0.88173335
H      -2.49411362     -1.66194619     -0.00001204
H      -3.32259583      0.56750045     -0.00001400
H      -0.61397852      1.32017849      0.00000338
