14
b3lypvtz=-180376.33133429
C      -2.26286264      0.78038807     -0.04688739
C      -1.68615188     -0.59162489      0.33643611
C      -0.23015657     -0.59192769      0.43458175
C       0.96738237     -0.56780201      0.50929217
C       2.42592415     -0.55442570      0.60360835
C       3.01251114      0.76155092      0.32466243
N       3.48925800      1.78501308      0.10934080
H      -3.35044476      0.72798121     -0.10630560
H      -1.99475023      1.53483694      0.69219268
H      -1.88089913      1.10604496     -1.01401406
H      -2.10673541     -0.91461786      1.29279902
H      -1.99263617     -1.33980512     -0.39989212
H       2.86154134     -1.27338723     -0.09687357
H       2.74801977     -0.86222468      1.60301684
