14
b3lypvtz=-224595.41408994
C       2.69370555     -0.71321037      0.00021893
C       2.01819670      0.62694690     -0.00008119
N       0.75972619      0.84293830     -0.00004512
N      -0.08224222     -0.21355233      0.00029416
C      -1.44888524      0.00349849      0.00014638
N      -2.09029730      1.09030532     -0.00005303
O      -2.07706646     -1.20020405      0.00028896
H       3.77556201     -0.60037496      0.00045021
H       2.41900863     -1.30101758      0.88219104
H       2.41941926     -1.30121025     -0.88175564
H       2.62855423      1.52196538     -0.00035553
H       0.24667480     -1.16863690      0.00020495
H      -1.45629711      1.88326039     -0.00014020
H      -3.02180505     -0.99856236      0.00023410
