15
b3lypvtz=-216928.20018813
C       1.88137788     -0.97558919     -0.75295730
C       1.07187828     -0.18343773     -0.05254468
O       1.40244194      0.38493576      1.14886566
C      -0.32675523      0.18687699     -0.46957005
C      -0.54720562      1.71390999     -0.49543080
C      -1.34997762     -0.43917474      0.46862016
O      -2.34298166     -1.00364003      0.09083267
H       1.55639297     -1.40253525     -1.68856907
H       2.88120683     -1.21441902     -0.41244443
H       2.28550945      0.09859161      1.40733201
H      -0.51600464     -0.22496199     -1.45968182
H      -1.55292427      1.94083681     -0.84842804
H       0.17063205      2.18295666     -1.16869767
H      -0.41674619      2.14909295      0.49459654
H      -1.13473018     -0.31976481      1.54898983
