12
b3lypvtz=-200510.31932106
C       2.77996794     -0.53902726     -0.00000138
N       1.74537569      0.20324011     -0.00001413
N       0.53561724     -0.37903251     -0.00001863
C      -0.62209884      0.39483384     -0.00000180
C      -0.68275111      1.73256913      0.00000383
C      -1.81965597     -0.39587997      0.00000459
N      -2.76631725     -1.05264347      0.00001123
H       3.74585347     -0.05480094      0.00000841
H       2.73704862     -1.63026262      0.00001830
H       0.45127319     -1.38827645      0.00001332
H       0.21767917      2.32514720     -0.00000028
H      -1.64215413      2.22271994      0.00001052
