10
b3lypvtz=-228050.62916344
C       2.31187148     -0.68757507      0.49751634
C       1.23160373     -0.27129620      0.17857302
C      -0.03737880      0.25262051     -0.22738368
N      -0.20590446      1.19325213     -1.07042199
C      -1.28352145     -0.34250976      0.37971889
N      -2.46692756     -0.02548274      0.15819728
F      -1.00666919     -1.32295540      1.25143229
H       3.26288584     -1.06290600      0.78639132
H       0.68386535      1.53562866     -1.42895154
H      -2.48972494      0.73122387     -0.52517193
