11
b3lypvtz=-262053.38968132
O       0.77615316     -0.54786633      1.71697599
C       1.10676433     -0.27803060      0.60205598
O       2.42011575     -0.21144425      0.26602220
C       0.14392658      0.00704922     -0.54827630
C      -1.29958798     -0.10371553     -0.10849696
O      -1.99785891     -1.06320338     -0.28849483
O      -1.71283421      1.02330522      0.50391112
H       2.53090709      0.01185151     -0.66565867
H       0.31272865     -0.71739162     -1.34548613
H       0.34166235      1.00899570     -0.93535798
H      -2.62197682      0.87055007      0.80280558
