17
b3lypvtz=-215291.87430533
C      -2.39905547     -0.94946361     -0.10663698
C      -1.33900125      0.11603656     -0.03343375
N      -1.37928923      1.29512186     -0.49657970
O      -0.26012469     -0.35151496      0.63455170
C       0.85804436      0.54311949      0.83761385
C       1.85297118      0.45271384     -0.30291450
N       2.46215898     -0.88060378     -0.35131077
H      -2.00810356     -1.83240143     -0.61433463
H      -3.27696197     -0.59114115     -0.63938140
H      -2.68812982     -1.25735508      0.89904850
H      -2.26951111      1.47442583     -0.94868156
H       1.31860866      0.19904352      1.76235314
H       0.48598398      1.55943130      0.94753642
H       1.35285190      0.75676734     -1.22997055
H       2.64220157      1.18359011     -0.10696949
H       1.74443872     -1.57646485     -0.51870713
H       3.11190375     -0.94290402     -1.12582313
