15
b3lypvtz=-216913.06285239
C       2.58816301     -0.05506079      0.04677636
O       1.30768179     -0.54562712     -0.31407242
C       0.25507164      0.08286524      0.34115709
C      -0.32382505      1.44102171     -0.17919159
C      -1.76573981      0.88732631      0.00313669
C      -1.14654327     -0.51328356      0.11028771
O      -1.55499969     -1.62113383     -0.06502270
H       2.76185295     -0.15823919      1.12440354
H       2.71341085      0.99706986     -0.23140706
H       3.32093268     -0.65262384     -0.49126441
H       0.43658614      0.14642838      1.42584256
H      -0.06307765      2.33240003      0.38568000
H      -0.07582910      1.58345264     -1.22980739
H      -2.47251735      1.02375370     -0.81339916
H      -2.24103513      1.19706146      0.93520279
