14
b3lypvtz=-224582.61026741
N      -2.20942333     -0.51807529     -1.37071772
C      -2.04316871     -0.49320501     -0.00216949
N      -0.96873115     -0.19149619      0.61893944
N       0.09085682      0.19340150     -0.23712688
C       1.26875081      0.54829601      0.52033667
C       2.53678586      0.27966938     -0.23766532
O       2.59012717     -0.31426936     -1.28576580
H      -3.15981773     -0.50992668     -1.70173214
H      -1.59136104      0.10175849     -1.87735711
H      -2.89255787     -0.80333950      0.59483879
H       0.32733096     -0.55095208     -0.89163004
H       1.25722739      1.60779608      0.80310591
H       1.33711311     -0.00907120      1.46817353
H       3.45676771      0.65951385      0.24997017
