12
b3lypvtz=-223815.21457437
N      -2.73876192     -0.71277421     -0.01380324
N      -1.80458749      0.12500313      0.02965549
C      -0.53656020     -0.42586380     -0.01139869
C       0.53761301      0.40609779     -0.00488074
N       0.46535154      1.77072767     -0.04938969
C       1.91772117     -0.15834744     -0.01070620
O       2.18618791     -1.33113568      0.02290442
H      -3.61376884     -0.17631762      0.03708811
H      -0.40720381     -1.50004570     -0.04833903
H       1.24651312      2.30325541      0.29459777
H      -0.44659932      2.17595964      0.08957306
H       2.72054483      0.60884180     -0.04641227
