13
b3lypvtz=-213770.48684165
C      -2.05099969     -0.71628308     -0.13972593
C      -0.60166479     -0.63762990     -0.55952743
O       0.02441236      0.39774349      0.24050528
C       1.32069176      0.62329946      0.01564632
N       2.01769699     -0.00088142     -0.83661853
C       1.82619606      1.67956494      0.87788726
N       2.29549736      2.50569370      1.52703803
H      -2.55676902     -1.48735997     -0.72227445
H      -2.56018426      0.23200268     -0.31088431
H      -2.13935169     -0.97100369      0.91626210
H      -0.06795761     -1.57320962     -0.38998046
H      -0.48671348     -0.37582371     -1.61172335
H       2.97914600      0.32388711     -0.84900834
