17
b3lypvtz=-191964.92253953
C      -2.59680369      0.81280780     -0.14130017
C      -1.15999262      0.42917193     -0.50833399
C      -0.83249747     -0.98636653     -0.14806432
C       0.32078176     -1.47764195      0.32834403
C       1.57112716     -0.78889443      0.61673207
N       1.86902737      0.38404911      0.19871296
N       3.04426944      0.93767718      0.62758023
H      -2.75868333      0.74509920      0.93601173
H      -3.32155691      0.15522375     -0.62693165
H      -2.81867664      1.83575564     -0.44863067
H      -0.44320395      1.10589206     -0.04518463
H      -1.02130266      0.55599727     -1.58956963
H      -1.64132809     -1.69936197     -0.28632830
H       0.34942756     -2.53761802      0.55746461
H       2.29042359     -1.34538856      1.23041116
H       3.76036650      0.27080143      0.90824624
H       3.38882198      1.60289607     -0.04745967
