12
b3lypvtz=-252152.71336855
C       0.10400397     -0.39368521     -0.17004947
C      -1.04746583      0.29651028      0.04858919
N      -2.31744191     -0.19411447     -0.09540607
O      -1.03333661      1.59620726      0.39386163
N       1.27675083      0.32883102     -0.03999016
C       2.42838300     -0.13315417     -0.20497796
F       2.67628451     -1.43022375     -0.54222895
H       0.09629889     -1.43987718     -0.44213678
H      -2.40952712     -1.19581355     -0.09439936
H      -3.02468535      0.29073488      0.43337374
H      -0.09127534      1.84129268      0.42357802
H       3.34201097      0.43329222     -0.10005236
