17
b3lypvtz=-217679.05449925
C       2.05884816     -0.39749366     -0.97778456
C       1.24243027      0.23949453      0.10415682
C      -0.06628884      0.12395916      0.34317000
C      -1.02272736     -0.68471032     -0.48860202
O      -1.44704151     -1.81805223      0.28352884
C      -0.69500171      0.83092496      1.51713469
O      -1.65024388      1.82158981      1.11577887
H       2.50512711      0.36206061     -1.62633358
H       2.89000133     -0.95809697     -0.54175896
H       1.48756643     -1.08100348     -1.60199659
H       1.81150851      0.86662974      0.78701019
H      -0.56356770     -1.01269002     -1.42372362
H      -1.88198714     -0.05352979     -0.73617772
H      -2.30268590     -2.10643061     -0.04586788
H      -1.26096610      0.11953548      2.11869097
H       0.08100972      1.27193874      2.15112223
H      -1.18608140      2.47597403      0.58365232
