18
b3lypvtz=-181895.34372482
C       2.90079190     -0.59157666      0.06847664
N       1.77451408      0.16763397     -0.43741626
C       0.84235351      0.46483030      0.36087324
C      -0.35533415      1.26407196     -0.06187326
C      -1.67127741      0.49647757     -0.10717648
C      -1.77118437     -0.86538756     -0.73383080
C      -1.96155515     -0.70557046      0.75368570
H       3.00279998     -1.51167588     -0.51054347
H       2.81837355     -0.84835874      1.13358594
H       3.81718674     -0.01828044     -0.08646084
H       0.87870605      0.15449699      1.41602724
H      -0.14828913      1.68840961     -1.04570081
H      -0.46753303      2.09729591      0.64142009
H      -2.52029832      1.14659096     -0.28163173
H      -2.63661011     -1.08814794     -1.34238356
H      -0.85462131     -1.32735931     -1.07478309
H      -1.18397671     -1.08364837      1.40253689
H      -2.95876412     -0.81097989      1.15804456
