21
b3lypvtz=-193505.63162233
C       2.22252691     -0.83082691      0.24654937
C       1.15277497      0.11992125     -0.30489069
C       1.53171088      1.57120027      0.01587807
C      -0.25014514     -0.27023727      0.20288803
N      -0.54403887     -1.66120034     -0.16243010
C      -1.36065537      0.69335737     -0.25500052
N      -2.66387105      0.23697372      0.25257641
H       1.97642265     -1.87024927      0.04238975
H       3.19829630     -0.60692563     -0.18898706
H       2.30993318     -0.71828739      1.33079683
H       1.13614078      0.01175508     -1.39804745
H       1.46810243      1.76237105      1.09066167
H       0.89754482      2.29750882     -0.49160097
H       2.56089494      1.76797573     -0.28932004
H      -0.22229900     -0.23247916      1.30118270
H      -1.52696980     -1.83113559      0.02701657
H      -0.43000112     -1.77501659     -1.16596057
H      -1.40549019      0.68189749     -1.34833057
H      -1.12696788      1.71890448      0.05022299
H      -2.75143650      0.45380032      1.23924133
H      -3.42027795      0.71896457     -0.21650374
