17
b3lypvtz=-194360.47748118
C      -2.90295842     -0.68028822     -0.27084114
C      -1.71158071     -0.40879522      0.24692278
C      -1.09654232      0.96013262      0.29721662
C       0.28296723      1.05343090     -0.38367171
C       1.37429756      0.31678154      0.34696626
C       2.51981600     -0.28123887     -0.34173521
O       1.46159736     -1.10376741      0.15888942
H      -3.30020171     -1.68677888     -0.28287301
H      -3.52636059      0.09522810     -0.70198955
H      -1.11703156     -1.21744702      0.65908205
H      -1.77519253      1.67860478     -0.16801125
H      -0.98433321      1.27077430      1.34305761
H       0.21853062      0.67686649     -1.40709519
H       0.57387733      2.10718815     -0.44409680
H       1.52079380      0.61937512      1.38279469
H       2.58098440     -0.21667158     -1.42391644
H       3.47026474     -0.38337277      0.17252586
