15
b3lypvtz=-212107.63939016
C      -1.38404281      1.24137430     -0.47275756
N      -0.55592429      0.11499167     -0.08213389
C      -1.14353265     -0.99051588      0.50081788
N      -2.36807023     -1.34313124      0.51125938
N       0.73689725      0.50375145      0.35110469
C       1.66755179     -0.31177044      0.03567515
N       2.97252234     -0.07322777      0.36411864
H      -1.88843162      1.70230810      0.38413720
H      -2.13662778      0.91476671     -1.19067942
H      -0.75064345      1.98174304     -0.95206520
H      -0.41507325     -1.63075708      0.99527397
H      -2.97060693     -0.67653115      0.03214786
H       1.49181217     -1.21818031     -0.54345148
H       3.60205023     -0.85540780      0.37996191
H       3.14211923      0.64058641      1.05449086
