12
b3lypvtz=-228847.85498769
F       2.43653186      0.49549523     -0.00009569
C       1.62542064     -0.63557630      0.00003409
C       0.18483463     -0.23034611     -0.00000125
N      -0.76831654     -1.15491868     -0.00008885
N      -1.91564870     -0.45197486     -0.00025653
H      -2.79047351     -0.94556332     -0.00033875
C      -1.71539584      0.88538296      0.00002425
C      -0.35147057      1.07385863      0.00011423
H       1.86976083     -1.22343294     -0.88705040
H       1.86978364     -1.22322386      0.88725175
H      -2.53404391      1.58429999      0.00008727
H       0.18574147      2.00433327      0.00014188
