12
b3lypvtz=-249737.63780572
C       2.37977242     -0.16829119     -0.41005970
N       1.23489655     -0.58945944     -0.11915071
N       0.20034774      0.28013542     -0.02783513
C      -1.10447037     -0.24620815      0.01084356
N      -1.43835308     -1.46765655     -0.00416315
N      -2.04405416      0.78045787      0.04230251
F       2.64383754      1.13590439     -0.67430823
H       3.24782805     -0.80439000     -0.47308114
H       0.31608939      1.19982377     -0.43304659
H      -0.62413590     -2.06063456     -0.13681941
H      -1.83652828      1.52687153      0.69028809
H      -2.97522991      0.41344692      0.16932309
