17
b3lypvtz=-194369.17704662
C       1.85541440     -0.03357794     -0.94588942
C       1.31691958      0.07463240      0.45903123
C       0.04358530      0.82557031      0.82172231
C      -0.96524447      1.14756437     -0.27663062
C      -1.65101605     -0.20846179     -0.52834894
O      -0.72593736     -1.21829885     -0.09616914
C       0.09069312     -0.67245403      0.91313186
H       2.62603207     -0.80522550     -0.99633387
H       2.30447441      0.90653009     -1.27409517
H       1.07853353     -0.30895163     -1.65724917
H       2.08513749      0.15539096      1.22097871
H       0.05146199      1.44012240      1.71075941
H      -1.67922058      1.90027176      0.05745711
H      -0.48710176      1.52825014     -1.18059911
H      -1.87966300     -0.39771996     -1.57713428
H      -2.57845177     -0.29013582      0.05056424
H       0.07416811     -1.21995291      1.84730283
