12
b3lypvtz=-249548.83441184
C       0.91863824     -0.22002480      0.18138585
C       2.13177468      0.65641357      0.02228909
O       2.13169577      1.79172748     -0.36584733
O      -0.24802126      0.49004106     -0.19616202
C      -1.41442793     -0.18254916     -0.10136981
N      -1.49957566     -1.37464770      0.29548818
O      -2.43666582      0.60612685     -0.48847579
H       0.85099971     -0.56004019      1.22032029
H       1.04146384     -1.12278505     -0.42647117
H       3.07140618      0.13791413      0.30842285
H      -2.46312127     -1.69180832      0.29249083
H      -2.08416648      1.46963212     -0.74207098
