17
b3lypvtz=-217671.27232129
C       2.34433120     -0.52066620     -0.16206679
C       1.11503765     -0.37828178      0.73408521
C      -0.06179746      0.31507690      0.06282373
O       0.36714946      1.60820551     -0.31351693
C      -1.39285320      0.21060470      0.84397258
O      -1.89403527     -0.77963609     -0.08185628
C      -0.80718074     -0.53006951     -1.00070821
H       2.12328023     -1.11091437     -1.05397118
H       2.70347677      0.45469405     -0.48672619
H       3.15289930     -1.02259123      0.37069973
H       0.77815970     -1.36058753      1.07401361
H       1.37192099      0.19584014      1.62867194
H      -0.35550765      2.06358500     -0.75720978
H      -1.98463968      1.13307195      0.81664917
H      -1.35095543     -0.16445213      1.86869295
H      -0.33723051     -1.45418628     -1.34204625
H      -1.13240334      0.05436189     -1.86960730
