10
b3lypvtz=-228030.64726003
C       2.16983539     -1.93379784      1.21288342
C       1.22727888     -1.41151391      0.68128588
C       0.08062595     -0.87353443      0.04179130
N      -0.05351972      0.38962572     -0.12121357
N      -1.25201014      0.69980250     -0.77185134
C      -1.37316190      1.94384948     -0.92558586
F      -2.45343224      2.42175950     -1.52624453
H       3.00974199     -2.37997684      1.68520772
H      -0.68461038     -1.56635843     -0.30767059
H      -0.67074784      2.71014424     -0.61314370
