16
b3lypvtz=-181155.58721366
N       2.70196800      0.28869239     -0.02862226
C       1.60160096     -0.57176347      0.02923962
C       0.30561585     -0.22984016     -0.03091030
C      -0.26743296      1.10837485     -0.07088891
C      -1.60504887      1.07883311     -0.01398624
C      -2.12869331     -0.33024165      0.10337794
C      -0.86205141     -1.21034280     -0.08538776
H       3.50779989     -0.03331080      0.48473932
H       2.50281725      1.25429481      0.18421258
H       1.87586522     -1.62017515      0.05960696
H       0.31464488      2.01875592     -0.13354672
H      -2.24755767      1.94857996     -0.01591424
H      -2.90073437     -0.55171470     -0.63753424
H      -2.59266171     -0.48953737      1.08313744
H      -0.78727251     -1.99244502      0.67090655
H      -0.89721324     -1.70856793     -1.05749374
