14
b3lypvtz=-203696.48296817
C      -2.10029904      0.58810390     -0.10134062
C      -0.93711225     -0.37265851     -0.13831030
N      -1.00380856     -1.62360590      0.09082444
C       0.37736869      0.22571347     -0.47315552
C       1.52653342     -0.45259141     -0.55688811
C       2.78047858      0.23013548     -0.89635735
O       3.85322838     -0.32072563     -0.98836283
H      -3.02857475      0.07793835      0.15064456
H      -1.92274718      1.37683678      0.63406197
H      -2.22195161      1.07993809     -1.06972564
H      -1.95854374     -1.90793670      0.30764062
H       0.38857825      1.29563965     -0.66133526
H       1.56136624     -1.51967728     -0.37709367
H       2.68548358      1.32258972     -1.07070230
