16
b3lypvtz=-202016.47862328
C      -2.53607694      0.59187292      0.31019518
C      -1.07043122      0.48332055      0.48611910
N      -1.92520016     -0.70346784      0.65562023
C      -0.11887156      0.46201855     -0.69084179
C       1.09477111     -0.37655670     -0.43037383
N       2.26260974      0.12268706     -0.47023272
N       3.33982902     -0.71758476     -0.29607504
H      -3.10718798      1.11691753      1.06643390
H      -2.95190252      0.64493393     -0.68875547
H      -0.66120923      0.92606135      1.38913166
H      -2.06600365     -0.90623843      1.63911683
H       0.20289438      1.47617906     -0.93416380
H      -0.65863469      0.06333810     -1.55578304
H       0.93125900     -1.43682685     -0.20508618
H       3.14382645     -1.54727635      0.25974972
H       4.12032825     -0.19937814      0.07731453
