14
b3lypvtz=-250266.12737649
C       2.76116692     -0.40744789     -0.17427175
O       1.37435055     -0.69455040     -0.29825583
C       0.54902778      0.17783070      0.44154282
O       0.59231361      1.49868647     -0.01018011
C      -0.82798332     -0.43214074      0.37317772
N      -1.77216881      0.24973144     -0.11812618
O      -2.97754417     -0.45222404     -0.15508239
H       3.08191353     -0.46429179      0.87271433
H       3.29052069     -1.16286935     -0.75067399
H       2.99837577      0.58349095     -0.56583411
H       0.89951072      0.20269186      1.48302361
H      -0.11713768      1.61437121     -0.65615944
H      -0.96129238     -1.45443434      0.71727132
H      -3.59235121      0.18896992     -0.52680700
