17
b3lypvtz=-217663.79728411
O       2.77117211      0.52031620      0.82185111
C       1.35115875      0.41470384      0.75515658
C       0.89103994     -0.27519735     -0.52875135
C      -0.61833450     -0.35854006     -0.75462055
C      -1.44347186      0.93802057     -0.59807436
O      -2.08997566      0.43471353      0.59376104
C      -1.50232122     -0.87247594      0.40403380
H       3.14222316     -0.36563546      0.87476708
H       0.98631304      1.44036654      0.79685385
H       0.96211598     -0.10096915      1.63911908
H       1.30096874     -1.29212452     -0.54255841
H       1.34954055      0.24875245     -1.37216512
H      -0.80121746     -0.87377452     -1.69694286
H      -2.16436480      1.11854222     -1.40048871
H      -0.89032516      1.85948615     -0.40494988
H      -0.99148816     -1.22459530      1.30269432
H      -2.25323347     -1.61168920      0.11041438
