12
b3lypvtz=-202936.98253658
N      -3.58553972     -0.50040848     -0.06200063
C      -2.51524072     -0.12378475      0.14449570
C      -1.20312469      0.35202244      0.42550663
C      -0.20001225      0.27314181     -0.45215987
C       1.18613201      0.76309507     -0.18396791
C       2.22679516     -0.34078488     -0.30702142
O       3.08704783     -0.53933035      0.50568342
H      -1.05736986      0.79569689      1.40354910
H      -0.38547630     -0.17989669     -1.42026105
H       1.45199904      1.51248618     -0.94230926
H       1.28053998      1.22478579      0.79769264
H       2.15161052     -0.96034704     -1.22423036
