17
b3lypvtz=-194331.20979298
C       1.32503438      0.28193223      0.33855923
C       0.26583323     -0.34667796      1.23855523
C       0.51920065     -1.75037875      1.88773623
C       1.60083284     -1.15949019      2.81731364
C       0.37976015     -0.21522598      2.79600671
O      -0.48182901     -1.41846084      2.93518669
C      -1.12192367     -0.12364662      0.64880547
H       1.13519001      1.35231823      0.23050314
H       1.27087207     -0.15418861     -0.66162408
H       2.34512858      0.16273845      0.69521824
H       0.45926852     -2.74038539      1.43796933
H       2.54795613     -0.82742773      2.40155591
H       1.72377619     -1.70098086      3.75143658
H       0.15254536      0.63629648      3.43574537
H      -1.32256417      0.94531292      0.54347645
H      -1.18536058     -0.56277032     -0.34981400
H      -1.89632073     -0.56276506      1.27126985
