14
b3lypvtz=-227001.05378654
C       1.89880464     -1.39126318     -0.07642181
O       0.81079427     -0.65401489      0.47542017
C       0.42395057      0.45581785     -0.27706899
O       1.35654148      1.50990364     -0.20917287
C      -0.94821102      0.89948215      0.25459043
C      -1.99683887     -0.08221947      0.00543316
N      -2.82447952     -0.84994684     -0.21350846
H       1.63466414     -1.79408624     -1.05908451
H       2.09420126     -2.21457427      0.60596625
H       2.79325693     -0.77197554     -0.16865353
H       0.35862418      0.20816018     -1.34138360
H       1.51831849      1.70783530      0.72176102
H      -0.86778362      1.07073524      1.33090933
H      -1.21971994      1.84269208     -0.21996158
