14
b3lypvtz=-203684.47074256
C      -1.20018161     -0.33965900     -0.66843023
C      -0.47000520     -1.32827828      0.13177430
C      -0.04333387      0.14953099      0.22489902
C       1.22107036      0.55600211     -0.42712928
N       1.64681667      0.00669843     -1.48771367
C      -0.42784264      0.86723930      1.46137271
O      -1.42721687      0.65064326      2.10487467
H      -0.99059782     -0.28216897     -1.72682836
H      -2.18421093     -0.03878635     -0.33793226
H      -0.94383424     -1.71881610      1.02111418
H       0.24921089     -1.96100460     -0.36797083
H       1.75715639      1.36832478      0.07902076
H       2.52809489      0.41473460     -1.79058246
H       0.28487398      1.65553983      1.78353145
