16
b3lypvtz=-204423.62037675
C      -1.17685265     -0.82370269      0.53798392
C      -0.24163428      0.36080575      0.87043536
C      -0.93183569      1.00768167     -0.35145236
N      -1.01080044     -0.40112534     -0.91246839
C       0.44251230     -0.68976833     -1.08146459
C       1.06705004     -0.13166154      0.23246962
O       2.00410835      0.89408682     -0.08209697
H      -0.85068204     -1.84092911      0.76224333
H      -2.20679439     -0.67862786      0.85909791
H      -0.18005694      0.82559619      1.85490425
H      -1.93302754      1.38126261     -0.14523780
H      -0.36816474      1.71763793     -0.95397241
H       0.59489154     -1.75971164     -1.21328769
H       0.83976927     -0.16318682     -1.94747158
H       1.54840437     -0.90762807      0.83579982
H       2.40311284      1.20927045      0.73451758
