15
b3lypvtz=-216890.55794047
O       1.71210720      1.31924681      0.70456728
C       1.25646638     -0.00603888      0.73984878
C       1.26347636     -0.84908272     -0.52753403
C      -0.00998311     -0.29179566      0.02324881
C      -0.99799465      0.69593370     -0.57389263
C      -2.05680690     -0.19996517      0.09863578
O      -1.03576411     -1.11623117      0.58199240
H       2.67170125      1.31182508      0.62649099
H       1.41244543     -0.53358721      1.67686363
H       1.65212964     -0.39796101     -1.43209087
H       1.44090152     -1.91108782     -0.41817386
H      -0.91580384      1.71086974     -0.19288803
H      -1.03294429      0.71359045     -1.66135466
H      -2.60386813      0.25744914      0.92503510
H      -2.75606275     -0.70316529     -0.57074870
