11
b3lypvtz=-269602.30085354
C      -0.63580485     -1.77877430      0.12546489
C      -0.81837974     -0.46504947      0.07693107
F      -2.07749395      0.02006830      0.05456174
C       0.18594717      0.60964673      0.04159522
O      -0.37509972      1.85730497     -0.00582360
C       1.51279764      0.44651312      0.05250913
F       2.09766656     -0.76844703      0.09872422
H       0.35164407     -2.20414209      0.14468015
H      -1.49555303     -2.43147291      0.14602105
H       0.31953875      2.52411139     -0.02847770
H       2.22604711      1.25864228      0.02574282
