17
b3lypvtz=-191983.08726963
C      -2.87516688      0.97143219      0.02127839
C      -2.31837543     -0.31632565     -0.50942996
C      -1.15928819     -0.89696760     -0.20771422
C      -0.10567846     -0.41292068      0.75051603
N       1.22276055     -0.59005150      0.18327036
C       1.96903047      0.42699317      0.09130998
N       3.27053089      0.36348388     -0.34900171
H      -3.78655443      0.79109750      0.59910378
H      -3.15536978      1.63828214     -0.79873607
H      -2.17739819      1.50332366      0.66590657
H      -2.95708066     -0.82842324     -1.22349300
H      -0.91120695     -1.83649189     -0.69022293
H      -0.16157525     -1.02049123      1.66265137
H      -0.29091579      0.62564733      1.05460061
H       1.66086926      1.43414375      0.39994158
H       3.65970712      1.19765211     -0.75456191
H       3.52852772     -0.49697095     -0.80738686
