14
b3lypvtz=-229590.82075799
C      -0.88555959      1.12989464      1.07776903
C      -0.84407686     -0.09080172      0.19973032
C      -1.92064813     -0.84040281     -0.05678020
C       0.45258957     -0.42944465     -0.37286814
N       1.51550122      0.22991019     -0.18214066
N       2.68983853     -0.22758674     -0.71212394
F       0.47692281     -1.54376936     -1.16753056
H      -0.20136177      1.02720603      1.92103442
H      -0.57172226      2.01826874      0.52777547
H      -1.89333253      1.28857644      1.45779635
H      -2.88192885     -0.58743871      0.36853975
H      -1.86933941     -1.71465527     -0.68826547
H       2.59496575     -0.79477145     -1.54684496
H       3.33815151      0.53501467     -0.82609143
