14
b3lypvtz=-227010.13069225
C      -2.22617124     -0.35218007     -0.02362764
C      -0.73002365     -0.55657028     -0.00002206
O      -0.24408236     -1.69049265      0.01929261
C       0.11375732      0.62848085     -0.01249164
O      -0.57175941      1.84068834     -0.02887547
C       1.47069251      0.56353673     -0.04702396
N       2.21405668     -0.57180331      0.03758866
H      -2.52146164      0.23135513     -0.89758126
H      -2.54535602      0.21878951      0.85038636
H      -2.71631618     -1.32215778     -0.03621030
H       0.04556772      2.56179441      0.12412135
H       2.03956991      1.48661809     -0.10980453
H       3.17050508     -0.54526384     -0.26474395
H       1.69751928     -1.44018311     -0.02805918
