15
b3lypvtz=-214537.73486288
C       2.26478529      1.15623816      0.00982830
C       1.38518356     -0.07323624     -0.00119464
N       1.77453662     -1.28937140      0.08965030
N       0.05126637      0.19729725     -0.14183120
C      -0.94206138     -0.83281961     -0.07798708
C      -2.32202529     -0.25230261      0.02630858
O      -2.55829449      0.92933483      0.07869756
H       2.16442058      1.70850748     -0.92667640
H       3.30825870      0.87946284      0.14021635
H       1.98011652      1.82961706      0.82136548
H       2.78451213     -1.33645992      0.17293793
H      -0.28913847      1.14207803     -0.07305270
H      -0.78138643     -1.50416805      0.77680657
H      -0.91440860     -1.49399603     -0.95492026
H      -3.13780011     -0.99997278      0.05511120
