12
b3lypvtz=-202938.96055312
N       3.91446436     -1.17159420     -0.07564576
C       2.93343107     -0.57619131      0.05601966
C       1.74460168      0.17668937      0.22461184
C       0.51623436     -0.34398207      0.03399776
C      -0.71224339      0.38008846      0.19357688
C      -1.90955521     -0.19389296     -0.00987482
O      -3.11517866      0.39304748      0.11265442
H       1.87087987      1.21145011      0.52001701
H       0.43835718     -1.38499373     -0.26153273
H      -0.66000919      1.42424363      0.48848049
H      -2.00774319     -1.23105767     -0.30477261
H      -3.01313886      1.31619288      0.37586787
