13
b3lypvtz=-239478.30999054
C       2.79383859     -0.35408419     -0.07326371
C       1.65272387      0.30418456     -0.16709141
O       0.45305927     -0.35550343      0.06039315
C      -0.70011251      0.34285788     -0.04466924
O      -0.77957113      1.51099682     -0.32597191
C      -1.90038907     -0.53041483      0.23780387
O      -3.09580432      0.19450180      0.12877218
H       3.72327347      0.16474180     -0.25127065
H       2.82678528     -1.40459149      0.17822468
H       1.54883662      1.34987708     -0.41339576
H      -1.88386835     -1.37099730     -0.46511665
H      -1.78594048     -0.95247956      1.24265859
H      -2.85283123      1.10091084     -0.10707314
