18
b3lypvtz=-181832.58204701502
C      -2.01618229     -0.68520484      0.67606455
C      -0.91827134     -0.23435128     -0.24745038
C       0.11985839     -1.22249832     -0.81408109
C       1.19912176     -0.25354088     -0.40301094
C       2.42819860      0.06997751     -0.73920579
N       0.29474435      0.54026232      0.48478615
C       0.51223967      1.97021282      0.64580331
H      -2.81420097     -1.18719932      0.12579267
H      -1.64385220     -1.38445485      1.42932469
H      -2.45580814      0.17519081      1.18635603
H      -1.26530164      0.47068558     -0.99893854
H       0.05756772     -1.44569492     -1.87704994
H       0.15038636     -2.16396621     -0.25982219
H       2.87230425      0.95667879     -0.30649366
H       2.98484087     -0.52662997     -1.44814452
H       0.34432298      0.13284045      1.41863225
H      -0.15299584      2.32739006      1.43384241
H       0.30302746      2.46030226     -0.30640504
