19
b3lypvtz=-192742.0470014
C      -1.98650356     -0.87097150     -0.60244102
C      -1.12195947      0.31694728     -0.16394500
C      -1.24557616      0.56456791      1.34277262
C       0.35613130      0.17972295     -0.63453556
N       1.15485716      1.40028867     -0.54270973
C       1.08521370     -0.96341205      0.05547039
N       2.26750333     -0.95048378      0.50178825
H      -1.71632099     -1.78978367     -0.07937821
H      -3.03890206     -0.67639584     -0.38889208
H      -1.89487491     -1.05739189     -1.67464708
H      -1.50527206      1.20359832     -0.68059462
H      -2.28606284      0.74444002      1.61794501
H      -0.89420935     -0.29396692      1.91868859
H      -0.67328932      1.43687175      1.66464730
H       0.31740605     -0.08735223     -1.69774646
H       0.84169360      2.08867982     -1.21451982
H       1.07961914      1.81938865      0.37676996
H       0.51818487     -1.89027372      0.15540937
H       2.68182257     -0.03154576      0.31682608
