13
b3lypvtz=-213776.46604684
N       2.32285192     -0.78267060      0.00001023
C       1.19035387     -0.20786990     -0.00000342
C       0.79155784      1.27398638     -0.00000477
C      -0.71891364      1.23825966      0.00000694
C      -1.08905919     -0.04877325      0.00000095
O      -2.29538587     -0.65454854      0.00000523
N      -0.00220926     -0.91196149     -0.00001813
H       3.07457649     -0.09918279      0.00001997
H       1.21626885      1.76794678      0.87868334
H       1.21625263      1.76793968     -0.87870505
H      -1.37176382      2.09423280      0.00000933
H      -2.98380367      0.01860132      0.00002421
H      -0.06199415     -1.91502905      0.00001917
