16
b3lypvtz=-204450.43278981
C       2.39420774     -0.87516646     -0.00002596
N       1.66960596      0.37475086      0.00000022
C       0.40763586      0.44848111      0.00001330
O      -0.15892706      1.69111106      0.00003414
C      -0.61143110     -0.62461603     -0.00000676
C      -1.91855991     -0.43889044      0.74645088
C      -1.91855642     -0.43884301     -0.74646237
H       3.04592961     -0.91276554      0.87612823
H       1.77812512     -1.78015887      0.00071830
H       3.04481658     -0.91343020     -0.87698642
H       0.58419520      2.31096075      0.00004200
H      -0.20778765     -1.62440980     -0.00004910
H      -2.06459527      0.50529303      1.24882540
H      -2.30924525     -1.30269736      1.26579173
H      -2.30923743     -1.30261729     -1.26586058
H      -2.06458797      0.50537220     -1.24877801
