15
b3lypvtz=-214533.8233265
C      -0.37714803      1.89004966     -0.03430803
N      -0.49374953      0.45344021      0.14496762
C      -1.57572308     -0.23897371     -0.31745518
O      -1.77908423     -1.42091746     -0.14116532
C       0.49201782     -0.22117746      0.96529273
C       1.80617706     -0.50469139      0.26451049
N       2.06519270     -0.42072160     -0.96794702
H      -1.17237929      2.23813510     -0.69164568
H      -0.46440016      2.41448002      0.92157841
H       0.58109225      2.15350991     -0.48468908
H      -2.26603905      0.40510759     -0.88894602
H       0.06179957     -1.17181614      1.28890973
H       0.69050482      0.37090453      1.86481793
H       2.60538860     -0.83315376      0.93358670
H       1.23799756     -0.11952250     -1.49057127
