12
b3lypvtz=-249551.14107391
O       3.11855085      0.57251956      0.33985841
C       1.96330911      0.57844128      0.66869095
C       0.85244211     -0.04852244     -0.16135146
N      -0.43534439      0.19915275      0.44287674
C      -1.48959361     -0.19935603     -0.13062205
O      -1.62974119     -0.86474788     -1.29201811
O      -2.70568085      0.00833081      0.39007738
H       1.61597278      1.04277360      1.61258717
H       0.94802448      0.36706492     -1.17502938
H       1.09057500     -1.12017676     -0.23434768
H      -0.76110338     -1.02232110     -1.67853819
H      -2.56731092      0.48674131      1.21791623
