16
b3lypvtz=-204449.0498656
O       2.46950070      1.05451639      0.42795847
C       1.57701725     -0.03750003      0.61948784
C       0.38200376     -0.00477195     -0.33146099
C      -0.54849311      1.17762410     -0.16882716
C      -1.81047517      0.74978471     -0.22269629
N      -1.91830030     -0.63401792     -0.42912192
C      -0.58656918     -1.19780359     -0.12991056
H       2.84078303      0.99297288     -0.45767821
H       1.22909604      0.04467862      1.65028436
H       2.10722967     -0.99456674      0.52245773
H       0.77848796     -0.02761268     -1.35818014
H      -0.22128126      2.20235308     -0.11633263
H      -2.71250567      1.34362343     -0.18296794
H      -2.68892204     -1.08480288      0.04251702
H      -0.53399715     -1.54052838      0.91260074
H      -0.36367452     -2.04404902     -0.77823034
