13
b3lypvtz=-211349.43014716
N       3.61654800     -0.42811105     -0.03584083
C       2.57468177      0.05321350      0.03300080
C       1.25149182      0.66519702      0.15687456
N       0.21361586     -0.28650610     -0.22488076
N      -1.04151366      0.32984195     -0.14052646
C      -2.04599992     -0.42180121      0.06232565
N      -3.34137034      0.04668117     -0.02291522
H       1.18846811      1.52033294     -0.51754324
H       1.14315855      1.05198238      1.17979592
H       0.27199460     -1.12855423      0.34599716
H      -1.96163151     -1.49591016      0.24806710
H      -3.42194130      1.05244791     -0.04668483
H      -4.01126798     -0.39877313      0.58295416
