18
b3lypvtz=-181908.5635422
C      -1.84710496     -1.58101468     -0.02967958
C      -0.52275101     -0.93379221     -0.42116760
C      -0.34611086      0.52123165     -0.05919554
C      -1.28641237      1.26909560      0.51336567
C       1.02030436      1.09681114     -0.38384723
C       2.06898085      0.64156304      0.59727885
N       3.04840285     -0.08040243      0.24712313
H      -2.00445305     -1.54993892      1.04969473
H      -2.69440232     -1.08476759     -0.50548856
H      -1.86220893     -2.62724290     -0.33722739
H      -0.37680448     -1.02642070     -1.50377312
H       0.30688465     -1.49964742      0.01549633
H      -2.26007436      0.87616223      0.77068313
H      -1.11241593      2.31360342      0.73959317
H       1.34276217      0.79650595     -1.38267070
H       0.96870235      2.18824904     -0.35178379
H       1.90681050      0.97278096      1.63069457
H       3.64989052     -0.29277620      1.04326458
