13
b3lypvtz=-239681.13113658
N       1.99882507      1.12468170      0.25537841
C       1.45732693      0.01533451      0.03031694
F       2.14541935     -1.15802457     -0.10269953
N       0.12795697     -0.22922872     -0.10998233
C      -0.83206332      0.79616343     -0.20389225
C      -2.13804344      0.54835670     -0.08639745
N      -2.68686980     -0.72173429      0.14583249
H       3.00607251      1.04601055      0.33184906
H      -0.11841231     -1.14732533     -0.44440280
H      -0.44156569      1.78458504     -0.37914721
H      -2.84170191      1.35322958     -0.24114041
H      -2.15788484     -1.28215438      0.80115455
H      -3.65712851     -0.70042322      0.41685754
