14
b3lypvtz=-227003.65040192
C      -3.39727765      0.12514971      0.03021912
N      -2.08440001     -0.38413057     -0.31098403
C      -1.08219240      0.08348526      0.29201677
C       0.29441592     -0.43959969      0.02433699
O       1.17309164      0.70324590     -0.11388177
C       2.48846863      0.44342928     -0.09399430
O       2.99233044     -0.63705590      0.02910963
H      -4.01708423     -0.70016090      0.38591108
H      -3.87288287      0.51099967     -0.87319618
H      -3.38042647      0.91394393      0.79332749
H      -1.15729085      0.87272223      1.05298057
H       0.30928806     -1.03680732     -0.88525049
H       0.64994966     -1.05583535      0.85318517
H       3.03876213      1.38607375     -0.20803905
