12
b3lypvtz=-247095.56112996
C       2.46803804     -0.46359766      0.07507766
N       1.40792096     -0.06977221      0.65789059
N       0.26163443     -0.08123915     -0.05598576
C      -0.93322921      0.32031887      0.47048518
N      -2.04845937      0.32728054     -0.16440826
O      -1.84350703     -0.14945029     -1.50178299
O      -0.89843473      0.73087957      1.74763768
H       3.38533726     -0.45452397      0.64665457
H       2.49657209     -0.80619136     -0.96164103
H       0.23835883     -0.39081739     -1.02038576
H      -2.72944183     -0.09907135     -1.86876770
H      -1.80478944      0.97927295      1.97522582
