16
b3lypvtz=-204417.49425904
C      -0.35370157      1.41773099     -0.04946329
C      -1.12558814      0.32795004      0.65168280
C       0.24856691      0.04876646      0.06207276
N      -0.32381283     -0.89226755     -0.91878330
C      -1.69881357     -0.64002722     -0.37814620
C       1.56153358     -0.27735776      0.70143540
O       2.64172220     -0.22331995     -0.23103843
H      -0.69046903      1.79121687     -1.01139952
H       0.07258847      2.17019510      0.60156001
H      -1.41886511      0.40061676      1.68856907
H      -0.20527643     -0.58378479     -1.87883163
H      -2.12096330     -1.54861082      0.05207105
H      -2.41415405     -0.21687908     -1.08920356
H       1.79328019      0.44972099      1.48068979
H       1.50698241     -1.26881417      1.16484303
H       2.52697026     -0.95513590     -0.84605801
