15
b3lypvtz=-193579.53857747
C      -1.81744709     -1.74396543     -0.00691297
C      -1.07904297     -0.80025729     -0.06569549
C      -0.16659047      0.31906152     -0.16307356
C       1.23814507      0.00167778     -0.64201655
C       2.00599789     -0.91276032      0.31255313
C      -0.73071196      1.66933422     -0.34546166
O      -0.23987076      1.26252376      0.92950319
H      -2.47684406     -2.57353896      0.05370760
H       1.76870928      0.94842194     -0.75939224
H       1.16939066     -0.45623043     -1.63219280
H       3.01468961     -1.09484996     -0.05967632
H       2.08637809     -0.45806325      1.30044585
H       1.50893802     -1.87715728      0.42284267
H      -0.13486818      2.41703829     -0.86040776
H      -1.80640013      1.79202341     -0.41188109
