13
b3lypvtz=-213780.12135855
O      -2.45847230      0.20663295      0.05155632
C      -1.41897182     -0.68965008     -0.30754208
C      -0.07616813     -0.03059547     -0.33665921
C       0.30742944      1.26608975     -0.56268285
N       1.67521902      1.39346147     -0.48532211
C       2.12280859      0.19287002     -0.22041012
N       1.10397800     -0.70931095     -0.11448413
H       1.19538679     -1.68959834      0.09035343
H      -2.19463819      0.66232922      0.85818025
H      -1.69514582     -1.06607909     -1.29549351
H      -1.38890228     -1.55777748      0.36639053
H      -0.32842535      2.10786830     -0.77742488
H       3.15600206     -0.08624030     -0.09296165
