11
b3lypvtz=-212925.13237107
C      -0.79277605      1.72604590     -0.13469826
C      -0.30310013      0.48827195     -0.04432171
C      -1.11691211     -0.67980159     -0.04708307
C      -1.84483577     -1.63424589     -0.05378192
O       1.07251659      0.34923077      0.05671009
N       1.53770248     -1.02030307      0.15686117
N       2.74186023     -1.07222388      0.24253297
H      -1.85668140      1.87843981     -0.21534866
H      -0.13596308      2.58339750     -0.12833947
H      -2.48106817     -2.48401003     -0.05890859
H       3.17925742     -0.13480147      0.22637746
