17
b3lypvtz=-191978.17802456
C       2.32207927      0.07147713      0.19244266
C       1.04723148      0.78676654     -0.24919386
N      -0.15055673      0.02874779      0.02263330
C      -0.67713939     -1.15777567     -0.66247277
C      -2.05368990     -0.83261078     -0.01816537
C      -1.38816359      0.43414728      0.50587001
N      -1.84661124      1.44187594      1.11803625
H       2.30615955     -0.12038458      1.26570396
H       2.43453407     -0.88486675     -0.32108672
H       3.19963261      0.67751613     -0.03869744
H       0.95198287      1.73841459      0.27779062
H       1.10588919      1.02421823     -1.32010439
H      -0.66254255     -1.07594793     -1.75411163
H      -0.21090273     -2.09824247     -0.36446807
H      -2.86997745     -0.65406266     -0.71412899
H      -2.37746243     -1.52270676      0.75812007
H      -1.13056304      2.14333396      1.30203238
