14
b3lypvtz=-203694.699649
C       2.33953556      0.47898641      0.15178641
N       1.28157859      0.51747566     -0.53386045
C       0.30824821     -0.49945178     -0.38998883
O       0.58545038     -1.66533364     -0.57148233
C      -1.07330358      0.00268462     -0.09058400
C      -2.03424085     -0.90709511      0.06774658
C      -1.30555067      1.48328290      0.02832873
H       2.52390083     -0.27892812      0.91739582
H       3.11444947      1.22280060     -0.01889714
H      -3.05281984     -0.61826476      0.29090654
H      -1.81214171     -1.96062735     -0.02879863
H      -0.69910567      1.92021882      0.82448103
H      -2.35269695      1.69015074      0.24566630
H      -1.02924478      2.00112901     -0.89123404
