19
b3lypvtz=-192735.0541425
C      -2.40551398     -0.35968587     -0.62456811
N      -1.65970357     -0.05482181      0.58878477
C      -0.60535491      0.93837256      0.42892687
C       0.64687802      0.37506564     -0.26060080
C       1.73870223      1.45348043     -0.34809534
C       1.17036321     -0.83462034      0.47693370
N       1.54428468     -1.94323702     -0.00495630
H      -1.77984525     -0.91248062     -1.32685059
H      -3.25227347     -0.99928565     -0.37664375
H      -2.78711143      0.53263259     -1.14642074
H      -2.29683484      0.24003270      1.31566472
H      -0.32206629      1.28668155      1.42596721
H      -0.94045073      1.82533522     -0.13499419
H       0.38934574      0.06316170     -1.27737869
H       2.60720718      1.08917877     -0.89655906
H       2.07375819      1.75345770      0.64760177
H       1.36378096      2.34380699     -0.85624363
H       1.26335161     -0.70875400      1.56033808
H       1.41180665     -1.95914754     -1.01982890
