16
b3lypvtz=-227777.28391563
C      -2.44927788     -0.47463196      0.26878898
O      -1.12785228     -0.59868741     -0.22209851
C      -0.21214483      0.37589557      0.27257800
C      -0.34167963      1.71908766     -0.44083046
C       1.22122930     -0.16005584      0.14709150
N       1.33016016     -1.41594481     -0.34123737
O       2.16932689      0.52600931      0.48515291
H      -2.92613120      0.45314645     -0.06166848
H      -2.47079880     -0.51119300      1.36428341
H      -3.01658301     -1.31618591     -0.12456672
H      -0.38026339      0.51492508      1.34848803
H       0.43425000      2.39462564     -0.08635058
H      -1.31352897      2.17404348     -0.25051382
H      -0.22492488      1.58361243     -1.51682858
H       0.50584881     -1.92453930     -0.60708156
H       2.24539971     -1.81712439     -0.44673776
