17
b3lypvtz=-194359.03553971
C       1.10400773     -0.14263634     -0.26400345
H       0.86478912      0.70424832     -0.91042849
H       0.80188943     -1.05433416     -0.78373734
H       0.49110488     -0.05559010      0.63578104
C       2.57555833     -0.16953756      0.07564190
H       3.23729196     -0.25381436     -0.78109155
C       3.05188850      0.64630657      1.23721243
H       2.41265543      1.36690457      1.72748008
C       2.98353325     -0.88612081      1.33252559
H       2.28139921     -1.49898297      1.88286467
C       4.50489139     -0.93772846      1.47857623
H       4.79340568     -1.24929749      2.48696676
C       4.57963569      0.60563898      1.32421170
H       4.99585048      1.09613097      2.20202661
H       5.11221649      0.94796944      0.43591920
O       5.26247859     -1.64040885      0.50560680
H       5.07760384     -2.58114774      0.59104782
