17
b3lypvtz=-194364.54908267
C      -2.86881724      0.08858277      0.05794842
C      -1.69743886     -0.48135770      0.30979354
C      -0.52706537     -0.51109376     -0.63040503
C       0.73039134      0.12544063     -0.05553465
C       0.69412567      1.61966435      0.14818395
C       1.65250512     -0.70153270      0.73271841
O       1.95384960     -0.37115249     -0.62784906
H      -3.06363884      0.59501808     -0.88033763
H      -3.67769940      0.06473611      0.77625825
H      -1.54958099     -0.97864631      1.26493081
H      -0.78729227     -0.00686956     -1.56512943
H      -0.28091227     -1.54627751     -0.88320394
H      -0.10452529      1.89992418      0.83643914
H       0.50951929      2.12536572     -0.80224335
H       1.64354044      1.97604488      0.54527766
H       2.29279159     -0.23527753      1.47535196
H       1.42297947     -1.74773317      0.91370395
