8
b3lypvtz=-222302.0227358262
C      -0.46904033     -1.16455536      0.02561171
O       0.15856019     -2.14295725     -0.29668924
C       0.06547265      0.20552348      0.00119034
N       1.32091319      0.33752926     -0.40615535
N       2.37894466      0.33523904     -0.76227165
C      -0.65370030      1.36035214      0.37429176
N      -1.28590440      2.27314886      0.69068568
H      -1.51524566     -1.20428015      0.37333674
