13
b3lypvtz=-211345.29634693
N      -2.68956860      0.19653216      0.00016343
N      -1.77470834     -0.63134550      0.00001918
C      -0.43000681     -0.00119110      0.00012840
N      -0.24014875      1.26682448     -0.00000251
C       0.60366208     -0.99119647      0.00039735
C       1.92994106     -0.66860559      0.00087746
N       2.40802667      0.58546890      0.00047926
H      -3.57473254     -0.32805237      0.00013412
H      -1.13881648      1.75130756     -0.00000617
H       0.30832883     -2.02756091      0.00040484
H       2.67321296     -1.45712472      0.00140656
H       1.72695187      1.34188831      0.00097284
H       3.39401407      0.76456424      0.00276226
