12
b3lypvtz=-249516.83626677
O       3.25433506      0.12511250     -0.61406061
C       2.77778768     -0.68896143      0.10964784
O       1.46853259     -0.82726197      0.46535609
N       0.61277508      0.15700957     -0.11417804
C      -0.58528098     -0.06474148      0.23373521
C      -1.66506588      0.84515266     -0.27167090
O      -2.65360256      0.11416176     -0.98849515
H       3.32134014     -1.49104643      0.62828539
H      -0.86256044     -0.91074383      0.86059048
H      -1.21980691      1.64487048     -0.86782495
H      -2.18616421      1.29592060      0.57486001
H      -2.26238956     -0.19957242     -1.81044538
