17
b3lypvtz=-240989.69500341
C       2.78052398     -0.05085055     -0.10186154
O       1.44501000      0.30602119      0.19390566
C       0.48714591     -0.46986937     -0.50511347
C      -0.89758777     -0.05274226     -0.00664120
C      -1.27157437      1.36985351     -0.41851949
O      -0.94946717     -0.17722246      1.40911823
O      -1.78340364     -0.99491472     -0.55594119
H       2.97924975     -1.09876259      0.15121316
H       3.42742977      0.58956561      0.49473014
H       3.00784927      0.10147642     -1.16329463
H       0.61951778     -1.53616994     -0.29273953
H       0.56620932     -0.31161955     -1.58665295
H      -2.24413119      1.62403653      0.00538270
H      -0.53703337      2.08179998     -0.04311538
H      -1.32338823      1.45431938     -1.50424441
H      -0.11097259      0.15479018      1.75401320
H      -2.66196546     -0.81532036     -0.20353529
