9
b3lypvtz=-233119.83964917
N       1.32057119      0.71275078     -1.11492733
N       1.43800220     -0.41911046     -0.63354275
N       0.31044211     -0.90489282     -0.01964985
C      -0.95727331     -0.38530627      0.17959719
O      -1.79982273     -1.02587916      0.76563341
C      -1.27659330      0.94931432     -0.32391550
N      -1.70691788      1.96750242     -0.64337996
H       2.22809650      0.93549274     -1.53138175
H       0.44349522     -1.82997156      0.36046655
