14
b3lypvtz=-224595.46435345
C      -2.23874034     -1.00856494     -0.07488885
N      -0.82958044     -0.65467024     -0.14738951
C      -0.43371008      0.64781681     -0.00283954
O      -1.20236965      1.53914922      0.31890141
C       1.00968259      0.95745341     -0.26697673
N       2.05427274      0.22883772     -0.15581026
N       1.97001233     -1.08351147      0.21608290
H      -2.32956503     -2.08867551      0.02352778
H      -2.79141638     -0.68101751     -0.95924392
H      -2.68314920     -0.52862410      0.79343504
H      -0.21132546     -1.27273301     -0.64985306
H       1.18004619      1.98635322     -0.55967971
H       1.22610479     -1.31721407      0.86767450
H       2.87210994     -1.40285353      0.53276996
