9
b3lypvtz=-235554.69839571
C       1.78078540      0.54066836     -0.30210111
N       2.69033726      1.24367826     -0.35277671
C       0.68850341     -0.42891524     -0.27191947
O       0.85333712     -1.58287142     -0.59260681
C      -0.66173625      0.06411022      0.17669049
N      -0.79603700      1.27455088      0.50436560
O      -1.60680573     -0.88755251      0.17466971
H      -1.74995632      1.49413127      0.79011146
H      -1.19842791     -1.71779983     -0.12643317
