14
b3lypvtz=-203682.29605201
C      -2.91132719     -0.03035142      0.02057194
C      -1.60977771      0.23798494     -0.13826553
C      -0.54645330     -0.71886334      0.05118605
C       0.78019157     -0.48610047     -0.03213404
O       1.65259682     -1.52322308      0.10552993
N       1.42416932      0.70805015     -0.35331165
C       1.14928740      1.78981233      0.24747386
H      -3.66666045      0.71942187     -0.16757158
H      -3.25537870     -1.00503785      0.34428343
H      -1.32986641      1.23642480     -0.45748884
H      -0.82793049     -1.75333033      0.20922534
H       2.53002244     -1.19572274     -0.12740634
H       1.65607672      2.70093889     -0.05918713
H       0.43368398      1.85503226      1.06879156
