14
b3lypvtz=-203692.91528816
N      -0.14371725      2.03638064     -0.41273902
C       0.08740312      0.79977245     -0.31027900
C       1.37379895      0.04431789     -0.01467537
C       0.84800242     -1.26245160      0.52958496
C      -0.46990723     -1.38024213      0.38842722
C      -1.06815764     -0.19953603     -0.32947346
O      -2.24187045      0.30841547      0.27048380
H       0.69938346      2.60229577     -0.32200922
H       1.96125185     -0.09662200     -0.92935307
H       2.01155314      0.58825470      0.68712084
H       1.49526336     -2.00896001      0.96930887
H      -1.06642644     -2.22629075      0.69810659
H      -1.27983618     -0.47355365     -1.37659523
H      -2.20664111      1.26831926      0.15219209
