18
b3lypvtz=-202809.90115653
C      -2.36961891      0.58686689     -0.71526406
C      -1.85533187     -0.75233961     -0.18789592
C      -0.75856112     -0.64525821      0.88709722
C       0.52031416     -0.01927416      0.39029311
N       0.71955776      1.33105460      0.63351155
N       1.37803647     -0.75973757     -0.20568708
N       2.52251103     -0.04422803     -0.67256920
H      -3.16693921      0.43804504     -1.44494304
H      -1.57932497      1.15543397     -1.20811788
H      -2.77633656      1.20316769      0.09140072
H      -2.68994800     -1.31703314      0.23612720
H      -1.46337824     -1.34727919     -1.01516786
H      -1.13229448     -0.07618537      1.74391577
H      -0.51967278     -1.64551750      1.24588141
H      -0.10395247      1.86710673      0.85078059
H       1.33528798      1.77615323     -0.03523595
H       3.03877636      0.32813913      0.12484271
H       3.12197584     -0.73431950     -1.10486628
