19
b3lypvtz=-192745.6600378
C       2.35423283     -1.24731530     -0.01352759
C       0.95226963     -0.76919660     -0.26382929
C       0.51773328      0.48707991     -0.06376661
N       1.35156513      1.57157520      0.26280864
N      -0.81034078      0.91741846     -0.16389953
C      -1.88593344      0.00970981     -0.54101528
C      -2.39486386     -0.82907310      0.62963537
H       2.99066291     -1.20387085     -0.90495868
H       2.35637972     -2.28733699      0.32012239
H       2.85724327     -0.66907793      0.76706138
H       0.25182802     -1.49676019     -0.64671607
H       2.31491036      1.31390266      0.40741676
H       1.00031392      2.11198608      1.04258671
H      -0.86425733      1.81634292     -0.61963233
H      -1.58840345     -0.64392180     -1.37068041
H      -2.70147778      0.63011110     -0.91574117
H      -3.20316851     -1.48653204      0.30339574
H      -1.60120131     -1.44751406      1.04678096
H      -2.77356461     -0.18403628      1.42330002
