16
b3lypvtz=-181156.81347385
C       0.88553823      1.91198432      0.04693577
C       0.10013729      0.82531853     -0.02356798
N      -1.29137568      0.80163089     -0.13987481
C      -1.80526715     -0.55188806      0.04188433
C      -0.54873821     -1.36906712      0.03053040
C       0.53386793     -0.58430558     -0.00546114
C       1.96687798     -1.00120625     -0.01826913
H       0.47879374      2.91345357      0.03035797
H       1.95673878      1.80941811      0.11804894
H      -1.81262456      1.56860920      0.24895119
H      -2.35368156     -0.66894866      0.98762047
H      -2.49500373     -0.83483629     -0.76219833
H      -0.55118660     -2.44934749      0.04651352
H       2.47732621     -0.62084053     -0.90596675
H       2.49795299     -0.60213116      0.84917880
H       2.06101433     -2.08637447     -0.00590226
