19
b3lypvtz=-192740.93212415
C      -2.58303382     -0.41327027      0.42111853
C      -1.74351000      0.30544427     -0.60871489
N      -2.04821097      0.43558621     -1.83570876
C      -0.44383554      0.90550583     -0.12229694
C       0.67434509     -0.13491109      0.01379712
N       1.89624155      0.48571650      0.50865966
C       3.00812378     -0.44662926      0.63665008
H      -2.00334632     -1.18202776      0.93694169
H      -3.45627451     -0.88125989     -0.03265714
H      -2.92147078      0.28970701      1.18698831
H      -2.93578052     -0.02516429     -2.04283249
H      -0.13995657      1.66663975     -0.84223360
H      -0.58421190      1.38798195      0.84822315
H       0.38429720     -0.90905917      0.73068507
H       0.81282263     -0.63944527     -0.95600726
H       2.15894343      1.24467232     -0.10934695
H       3.24159918     -0.99789239     -0.28786253
H       2.77986902     -1.18329070      1.41015427
H       3.90338904      0.09169625      0.94873652
