19
b3lypvtz=-171821.49772645
C      -1.50178093     -1.50876851      0.09369174
C      -0.89537278     -0.23586749     -0.46857235
C      -1.35578422      1.12876398      0.12103543
C       0.11976250      1.61442242      0.11729534
C       0.54797166      0.15946355     -0.09826285
C       1.83692932     -0.35743917     -0.64904315
C       1.47386159     -0.60751166      0.79680275
H      -1.01084586     -2.40026748     -0.30488717
H      -2.56181477     -1.57841648     -0.16154154
H      -1.41773163     -1.53848393      1.18203654
H      -1.00730984     -0.22693650     -1.55691772
H      -1.74601944      1.01597178      1.13338203
H      -2.06994528      1.70512998     -0.46587165
H       0.47941996      2.10630684      1.02147629
H       0.34826730      2.24995710     -0.74036705
H       2.62313749      0.35563393     -0.86292384
H       1.80185786     -1.19846166     -1.33058740
H       1.20363824     -1.61594388      1.08193216
H       2.01241481     -0.05950082      1.55962045
