15
b3lypvtz=-216895.23689584
O       1.26180962      1.69162752      0.81700800
C       0.39356504      0.59511794      0.89051952
C      -0.91884944      0.71580424      0.09737680
C      -1.66712512     -0.57844259      0.19659873
C      -0.52783408     -0.47402606     -0.77413393
C       0.80413695     -0.61276257     -0.03738800
O       1.93534854     -0.21492861     -0.80203487
H       1.78810446      1.58118882      0.01285527
H       0.25968972      0.34891035      1.94613995
H      -1.38784203      1.64957435     -0.17798867
H      -2.65402699     -0.59123338     -0.24617669
H      -1.57325939     -1.19493313      1.08548311
H      -0.66303460     -0.62710163     -1.83733248
H       0.99794694     -1.57293798      0.45146247
H       1.95137038     -0.71565727     -1.62248922
