15
b3lypvtz=-170311.00453632
C      -2.37609392      0.40208487     -0.53282247
C      -1.63309382     -0.48894850      0.11021905
C      -0.23183154     -0.28321910      0.62811213
C       0.39267196      1.07390526      0.44840717
C       1.58326598      0.94243218     -0.15719165
C       1.82675358     -0.47322354     -0.45083990
C       0.78860375     -1.20062363     -0.01246415
H      -3.37208714      0.15250507     -0.87446112
H      -2.02030533      1.40102447     -0.74728627
H      -2.04059510     -1.47919796      0.29314266
H      -0.24479854     -0.50969718      1.70738059
H      -0.05803944      1.99120828      0.79493001
H       2.26980530      1.74303693     -0.39268226
H       2.70999113     -0.85437764     -0.94300827
H       0.66374613     -2.27029251     -0.08613653
