9
b3lypvtz=-292152.71132712
C      -1.73063739      0.12619101     -0.33751160
C      -0.52660629     -0.28612940      0.03711941
O       0.57620723      0.48926923     -0.11801863
C       1.86033878      0.14941418      0.23989369
O       2.23278260     -0.86089287      0.73945871
F      -0.36836958     -1.48607823      0.58130822
F      -1.91015708      1.33539170     -0.88919585
H      -2.61739305     -0.47524584     -0.22239971
H       2.48383480      1.00808024     -0.03065424
