13
b3lypvtz=-237043.02498937
O      -1.61341830      2.03336427     -0.41113190
C      -2.07163516      0.93350241     -0.24569090
C      -1.23960166     -0.31550317     -0.11615238
N       0.15776882     -0.02708271     -0.21270476
C       1.13123677     -0.97443435     -0.15086514
N       2.39535318     -0.78870981     -0.23324597
O       2.65573835      0.60355454     -0.40646925
H      -3.16369468      0.76604377     -0.17562736
H      -1.51783321     -0.78049754      0.84205885
H      -1.59036471     -1.00942291     -0.89528737
H       0.42570861      0.93541427     -0.34766620
H       0.81610642     -2.00228823     -0.01595876
H       3.61463556      0.62605944     -0.45775886
