11
b3lypvtz=-238710.13288506
C       0.25659040      0.72418410      0.04140699
C      -1.03577532      0.10437490      0.15727752
C      -0.83925644     -1.22147350      0.34698372
O       0.52860744     -1.47292769      0.35694040
C       1.14125954     -0.30187179      0.17399849
O       2.48255598     -0.38907437      0.16074607
O      -2.25244041      0.71256996      0.09247503
H       0.48001606      1.76596093     -0.11521018
H      -1.48584211     -2.06542173      0.48283970
H       2.85328401      0.48854621      0.02579415
H      -2.12899914      1.65513297     -0.04755495
