15
b3lypvtz=-214549.72233324
C      -2.34516814     -0.96905812      0.00067144
C      -1.26328417      0.09068944     -0.00021016
N      -1.43719313      1.34533146     -0.00111490
N       0.01953080     -0.48021492      0.00007178
C       1.27363265      0.13488668      0.00039834
C       2.41320377     -0.87409276     -0.00090836
O       1.45194740      1.32535441      0.00123677
H      -3.32907068     -0.50642346      0.00034596
H      -2.26353229     -1.60804773      0.88338590
H      -2.26364291     -1.60944187     -0.88104793
H      -2.43206047      1.55588815     -0.00110736
H       0.03771226     -1.48611936     -0.00010498
H       2.36528700     -1.51947016      0.87881415
H       3.35363322     -0.33199897      0.00407049
H       2.36990369     -1.51072779     -0.88723315
