15
b3lypvtz=-212098.19500235
C      -2.65348055     -0.56902104     -0.59856653
C      -1.95215364     -0.33012948      0.73668009
N      -1.11606790      0.86760545      0.74429139
C       0.15605776      0.89417044      0.31890282
N       0.77393072     -0.16127080     -0.10048215
N       2.07872749      0.17817567     -0.43594129
N       2.72510563     -0.80741531     -0.82691784
H      -3.30161094      0.26900224     -0.86132596
H      -3.26894729     -1.46851222     -0.54335376
H      -1.92040662     -0.70503499     -1.39262001
H      -2.68107095     -0.22430553      1.54147282
H      -1.30754200     -1.17414147      0.97595443
H      -1.53976725      1.74563404      0.98620408
H       0.65256150      1.86398526      0.35552890
H       3.65803804     -0.44094727     -1.04656299
