14
b3lypvtz=-222165.04187299
N       2.38250647      0.12198036      1.13693960
N       1.24878489     -0.08057437      0.47245417
N       0.75740277      0.96348267     -0.01268182
C      -0.47555811      0.76322489     -0.69821026
N      -0.97966542      1.72877832     -1.34907449
C      -1.16168983     -0.58483652     -0.67378557
N      -1.57335195     -0.95905005      0.68525686
H       2.93186794     -0.70511869      1.29056963
H       2.84532404      1.01594712      1.00821239
H      -0.37867556      2.55033169     -1.25524536
H      -0.50412656     -1.32162462     -1.15521777
H      -2.05016565     -0.47615873     -1.29110894
H      -0.78019410     -1.31752079      1.20131248
H      -2.26255894     -1.69886128      0.64047908
