13
b3lypvtz=-213773.63856445
N      -1.95213490     -0.03493220      0.62492350
C      -1.19764685     -0.46645323     -0.55952863
C       0.21853034     -0.00711634     -0.46796874
C       0.92202305      0.83705242     -1.25313446
O       2.19421408      0.93584758     -0.75025125
C       2.18095403      0.13168749      0.33667339
N       1.05462611     -0.45204499      0.55621575
H      -2.87819825     -0.44643993      0.61217742
H      -1.48865116     -0.38466478      1.45642014
H      -1.65765087     -0.02731119     -1.44673015
H      -1.19379166     -1.55657665     -0.70263278
H       0.70175202      1.41342483     -2.13212240
H       3.09587407      0.05772699      0.89945821
