15
b3lypvtz=-191170.45862293
C       2.82318116     -0.84495413      0.35018131
C       1.77595724     -0.38353222     -0.01203230
C       0.49345799      0.20158907     -0.42628993
C      -0.66631538     -0.75844268     -0.13061344
C      -2.06193708     -0.29918060     -0.26795652
N      -1.49883550     -0.59900077      1.06325126
N       0.24852448      1.52879697      0.16514808
H       3.74807510     -1.25824418      0.66729607
H       0.52455357      0.33227650     -1.51231654
H      -0.43287229     -1.79070901     -0.36464183
H      -2.21755707      0.74289122     -0.51913849
H      -2.82626432     -0.98513037     -0.61066163
H      -1.27350529      0.28675355      1.50808194
H       0.67151402      1.58019299      1.08439940
H       0.69202337      2.24669365     -0.39336796
