15
b3lypvtz=-193583.87721562
C       3.02139975      0.48683440     -0.44035623
C       1.66680337      0.15101834     -0.02452072
C       0.55006864     -0.12877792      0.32276532
C      -0.80057103     -0.45716006      0.72931666
C      -1.84102893      0.68203497      0.89237051
O      -2.80136871     -0.02949915      0.08253507
C      -1.80303082     -0.98776066     -0.32917330
H       3.22392862      0.12433571     -1.45021006
H       3.17681056      1.56763266     -0.43803278
H       3.76090038      0.04181166      0.22844567
H      -0.78499565     -1.10085091      1.60962895
H      -2.21022745      0.86614344      1.90229144
H      -1.53480657      1.62377705      0.42998999
H      -1.47913548     -0.82303841     -1.35986459
H      -2.14474666     -2.01650111     -0.20649772
