17
b3lypvtz=-194386.8407104
C       1.18730772      0.90124158     -0.38545550
C       1.31157980     -0.65407979     -0.47059133
C       0.04179672     -1.11332118      0.26388648
C      -0.10340960     -0.07306606      1.37747115
C      -0.14818672      1.09217750      0.36895173
C      -1.27779628      0.59784932     -0.54209490
O      -1.09111506     -0.83544019     -0.58321924
H       2.01439111      1.33682278      0.17648228
H       1.17257040      1.37525148     -1.36718156
H       2.21339017     -1.02016414      0.02359024
H       1.31426365     -1.02447748     -1.49453178
H       0.00607428     -2.16436956      0.53941150
H       0.75323647     -0.02975676      2.05033623
H      -1.02027424     -0.19625582      1.95324899
H      -0.30947632      2.08949000      0.77336230
H      -2.27012485      0.81961119     -0.13806973
H      -1.21457826      1.00404714     -1.55492089
