12
b3lypvtz=-226246.64480995
C       2.19692120      0.54079437     -0.00020454
C       1.49701769     -0.58823635      0.03792059
C       0.02170179     -0.67551951      0.02684937
O      -0.57757875     -1.72137011      0.06287951
O      -0.57066916      0.55617549     -0.02837476
C      -1.95871296      0.74087503     -0.04880234
N      -2.89033253     -0.08938720     -0.02371757
H       1.71316675      1.50626127     -0.04347592
H       3.27838737      0.52416360      0.01113743
H       1.97803659     -1.55626440      0.08132097
H      -2.13074533      1.81170861     -0.09388892
H      -2.55719266     -1.04920077      0.01835616
