20
b3lypvtz=-182679.65632026
C       2.31362331     -0.82157155      0.12105584
C       1.17691024     -0.06380033      0.82206586
C       0.24336421      0.63865809     -0.15545145
N       0.58150194      1.65836378     -0.83601685
C      -1.16853951      0.10632956     -0.33235147
C      -1.18979502     -1.36136055     -0.78195591
C      -2.00291667      0.31089454      0.94186739
H       2.98147922     -1.27706684      0.85350318
H       2.90655057     -0.15106797     -0.50218193
H       1.92664291     -1.61425689     -0.52003805
H       1.60377673      0.69207421      1.48626553
H       0.61976918     -0.75449279      1.45642936
H       1.54166162      1.94059411     -0.62505873
H      -1.60444756      0.71669113     -1.12476405
H      -0.63275194     -1.50130583     -1.70939139
H      -0.76478500     -2.02567590     -0.02628328
H      -2.21736965     -1.68436020     -0.95793600
H      -2.01167345      1.35936954      1.24243060
H      -3.03526848      0.00186035      0.76826809
H      -1.62106467     -0.27914647      1.77784126
