18
b3lypvtz=-205187.06296091
C       2.89146329     -0.39859596     -0.19609893
N       1.58015311     -0.59065046      0.41319280
C       0.50219519      0.02132493     -0.30778194
C       0.19937217      1.47907705     -0.02429464
C      -0.73442067      0.41945538      0.45240891
O      -1.97911438      0.35443787     -0.17477741
C      -2.57663083     -0.92697945     -0.08892777
H       2.96178647     -0.76221270     -1.23237543
H       3.13597975      0.66470223     -0.20247445
H       3.64807743     -0.91149254      0.39853536
H       1.39744347     -1.57766830      0.54628180
H       0.33039566     -0.28607828     -1.34083004
H       0.80750339      1.98098204      0.71470752
H      -0.13745318      2.08786366     -0.85122469
H      -0.74345542      0.19249728      1.51563523
H      -1.96159595     -1.69176409     -0.57666861
H      -3.53851948     -0.86717229     -0.59478018
H      -2.74044200     -1.22294439      0.95414347
