15
b3lypvtz=-193606.23641984
C       1.82686166      0.54182238      0.00000590
C       1.62355289     -0.77019719      0.00000156
O       0.31506730     -1.16030008     -0.00000932
C      -0.47195312      0.04781456     -0.00000229
C       0.48918648      1.24148028     -0.00000531
C      -1.75353623     -0.01280659      0.75981097
C      -1.75354710     -0.01280420     -0.75979631
H       2.78692000      1.02995113      0.00001299
H       2.33396173     -1.58225521      0.00000418
H       0.34840267      1.87604661      0.88005430
H       0.34841331      1.87603449     -0.88007566
H      -1.99004269     -0.94498111      1.25355978
H      -2.07930535      0.87868049      1.27975935
H      -1.99006089     -0.94497702     -1.25354481
H      -2.07932367      0.87868445     -1.27973731
