14
b3lypvtz=-201252.10291999
C      -3.43585975      0.07952634     -0.00836624
C      -2.16956224      0.50641844     -0.00235557
C      -1.02426003     -0.37160546     -0.01984564
N       0.17024583      0.10418160     -0.01283230
N       1.19458390     -0.75390128     -0.02970414
N       2.49037395     -0.38468622     -0.02548823
C       2.80457316      0.85216716     -0.00340972
H      -4.26527934      0.77199491      0.00543752
H      -3.67900963     -0.97608984     -0.02730164
H      -1.94555845      1.56694289      0.01657346
H      -1.20458390     -1.45184218     -0.03918670
H       1.04316349     -1.75301179     -0.04853336
H       3.86214520      1.07729157     -0.00119805
H       2.07995582      1.65928785      0.01269361
