15
b3lypvtz=-191174.12574437
C      -2.91131449      0.36057964      0.34552890
N      -1.77609079      0.50387753     -0.55075013
N      -0.74144788     -0.34141282     -0.28085878
C       0.43537117     -0.01865759     -0.63493831
C       1.57770607     -0.98113894     -0.43829730
C       2.70476845     -0.38448001      0.27583143
C       3.62408359      0.12404375      0.85465102
H      -3.23482276     -0.67876400      0.33717877
H      -2.69059061      0.64595710      1.38111946
H      -3.72679702      0.98133626     -0.02520899
H      -1.49487855      1.46928475     -0.70431158
H       0.66166549      0.94526615     -1.10211073
H       1.20188951     -1.85138269      0.10265178
H       1.93163223     -1.34025484     -1.41214365
H       4.43882561      0.56574568      1.37149851
