15
b3lypvtz=-214506.43779649
N       3.00670832     -0.57917187     -0.09623446
C       2.29159218      0.47109263     -0.02402769
N       0.92970549      0.60315101      0.11162607
C       0.01066339     -0.51259993     -0.00489070
C      -1.34369067     -0.11484445      0.51333456
C      -2.58009265     -0.54301207     -0.14042562
O      -2.08645478      0.78906507     -0.31855325
H       2.45014349     -1.43259490     -0.09222479
H       2.79598336      1.43755609     -0.03643101
H       0.54651517      1.50493738     -0.12421749
H      -0.07744128     -0.86596883     -1.03950744
H       0.38709393     -1.34443355      0.59645632
H      -1.37833477      0.13792891      1.56968051
H      -3.49229261     -0.62352347      0.44099977
H      -2.52887357     -1.17559203     -1.02069778
