16
b3lypvtz=-181117.41844163
C      -2.84304140      0.30275941     -0.15578410
C      -1.83492006     -0.31141886      0.05735224
C      -0.60807542     -1.05772864      0.29973583
C       0.66258774     -0.39041807     -0.28142437
N       1.77236510     -1.33699207     -0.09768272
C       0.99697471      0.88541966      0.43646056
C       1.02710245      2.08521887     -0.12648084
H      -3.73568774      0.84703775     -0.33667605
H      -0.46133401     -1.20915361      1.37220852
H      -0.70574856     -2.05482176     -0.14139007
H       0.46366950     -0.15475973     -1.33475701
H       2.63510991     -0.93143274     -0.44067048
H       1.60922152     -2.18417080     -0.63072419
H       1.23554996      0.76892205      1.49001972
H       0.79538551      2.22556789     -1.17565869
H       1.27351479      2.97246165      0.44179465
