9
b3lypvtz=-209855.35795125
C      -1.53376785     -0.50846969      0.06402627
N      -0.36803889     -1.13240612      0.36066566
C       0.53368847     -0.20051307      0.10657805
N      -0.08213071      0.92737288     -0.32264480
N      -1.40940522      0.74172154     -0.35408757
C       1.94308503     -0.30661435      0.24364406
N       3.09002128     -0.34755266      0.33967406
H      -2.49606148     -0.98236743      0.15695487
H       0.32260937      1.80882891     -0.59481060
