14
b3lypvtz=-227023.61474761
C       2.32631015      0.15686990      0.36784382
C       1.13378839      0.18550558     -0.56626685
O       1.24659576      0.38809338     -1.76366539
N      -0.07890823     -0.02985906      0.01402929
C      -1.29286180     -0.03018227     -0.75371113
C      -2.48601617     -0.29237153      0.12129709
O      -2.42219759     -0.47657859      1.31080612
H       2.84470258      1.11283811      0.29995867
H       3.01714871     -0.61370561      0.02670913
H       2.06303459     -0.03394203      1.40756163
H      -0.17205274     -0.19737405      1.00308818
H      -1.44867421      0.92319562     -1.27449578
H      -1.27445518     -0.78617543     -1.54899426
H      -3.45641428     -0.30631402     -0.41005870
