13
b3lypvtz=-213762.81342362
C       2.48151092     -0.80742341     -0.00002783
C       1.82398665      0.34747286     -0.00003746
C       0.35659923      0.49149668     -0.00002644
N      -0.27994268      1.59129334     -0.00004323
O      -0.27263688     -0.71649962     -0.00001099
C      -1.65834477     -0.88796376      0.00001575
N      -2.58332597     -0.04950036      0.00000705
H       3.56263083     -0.83061138     -0.00001661
H       1.96034070     -1.75397779     -0.00003512
H       2.36421382      1.28697385     -0.00005233
H       0.36464021      2.37661355     -0.00005580
H      -1.83556718     -1.95924785      0.00003670
H      -2.22570487      0.90475891     -0.00001968
