18
b3lypvtz=-181922.68591902
C      -2.47145367      0.06963129     -0.06202884
C      -0.97277511      0.10073459     -0.00558104
C      -0.26194835      1.23311343      0.09841153
C       1.24412066      1.25497541      0.10790706
C       1.82229083     -0.09490125     -0.33826387
C       1.03645502     -1.24984976      0.27821237
N      -0.36126774     -1.15103943     -0.12379027
H      -2.88656131     -0.51266533      0.76712922
H      -2.81437186     -0.39850256     -0.98875751
H      -2.88498072      1.07446788     -0.00971644
H      -0.79211493      2.17479202      0.14571183
H       1.61276999      2.04489455     -0.55361718
H       1.61901855      1.51119440      1.10629932
H       1.76215801     -0.17883115     -1.42579736
H       2.87544979     -0.17677455     -0.06336921
H       1.43006875     -2.20909323     -0.06229193
H       1.14419000     -1.21622823      1.37258570
H      -0.93711093     -1.91861007      0.18550863
