17
b3lypvtz=-194368.88666661
C       0.78606133      1.32151503     -0.41602264
O       1.66602226      0.19863496     -0.45890517
C       1.03865744     -1.08080146     -0.53889392
C      -0.30977280     -1.10067528      0.18016543
C      -1.26817185     -0.10704451     -0.52251489
C      -0.52976511      0.98847372      0.28637639
C      -0.25783550     -0.09652922      1.36482469
H       0.58528098      1.69064611     -1.43130143
H       1.33173655      2.09908342      0.12264729
H       1.73979919     -1.77874175     -0.07647115
H       0.90714481     -1.37873603     -1.58837562
H      -0.64583766     -2.12261105      0.35583053
H      -1.23170578     -0.04791707     -1.61261167
H      -2.30146021     -0.23231524     -0.19953353
H      -1.06883478      1.89545567      0.56010556
H       0.66563014     -0.02823284      1.93907054
H      -1.10694902     -0.22010445      2.03550958
