13
b3lypvtz=-239679.02815153
N      -2.77422035     -0.71032312      0.05324209
C      -1.68069215      0.10655755     -0.01967319
N      -0.48900552     -0.35713624      0.01459599
C       0.59719610      0.46530438      0.01681397
F       0.36596266      1.82231293      0.00087005
C       1.87015688      0.05075546      0.00708228
N       2.25718687     -1.28795180     -0.10009517
H      -3.65461404     -0.35562789     -0.27560360
H      -2.61516741     -1.69650356     -0.07743726
H      -1.90917963      1.16997103     -0.06696120
H       2.66085722      0.78655570      0.01022226
H       1.48196148     -1.92048968      0.04473336
H       3.03923790     -1.53220675      0.49014743
