13
b3lypvtz=-190427.45803213
C       3.41544037      0.20876396     -0.02765300
C       2.23556783     -0.01661446      0.02487105
C       0.85835208     -0.36612192      0.10136589
N      -0.06219178      0.50243141     -0.09387867
C      -1.40704646      0.12501257     -0.03102342
C      -2.32294360      1.10555648      0.02695161
N      -1.72133062     -1.24284544      0.03843245
H       4.45219188      0.43165046     -0.07695992
H       0.64796194     -1.40575536      0.36235856
H      -3.38159200      0.89397968      0.07935918
H      -1.99501902      2.13154533      0.06145101
H      -1.25238534     -1.80500928     -0.65964969
H      -2.71466329     -1.41967843      0.01489096
