16
b3lypvtz=-181130.17931742
C      -0.90966711      2.00063394     -0.44660818
C      -0.63824665      0.78032592     -0.01536410
C      -1.47384707     -0.45501953      0.27078467
C      -0.19421302     -1.16772936      0.80230478
C       0.65178137      0.08058425      0.41833575
C       1.69583038     -0.04876308     -0.66496241
N       2.22973816     -1.09225464     -1.13825535
H      -1.92022637      2.29670545     -0.70046269
H      -0.13675300      2.75079886     -0.55974340
H      -1.90497852     -0.91671300     -0.61904604
H      -2.27080626     -0.31465729      1.00157200
H       0.06569844     -2.08660239      0.27851205
H      -0.20841236     -1.37543448      1.86991382
H       1.12900047      0.57338558      1.27174801
H       2.02166687      0.90876169     -1.08051118
H       1.86343468     -1.93402192     -0.68821774
