13
b3lypvtz=-213744.75421552
C      -2.16335620     -0.90526849      0.15986684
C      -0.87017216     -1.12203009     -0.05646005
N       0.17495467     -0.17158635     -0.05352070
C      -0.00686734      1.19884381     -0.14223353
O      -1.05779466      1.77374168      0.01253735
N       1.43241417     -0.74089291     -0.24080760
C       2.44115996     -0.14277854      0.24713298
H      -2.83180602     -1.75288456      0.11331571
H      -2.57238654      0.06687598      0.37282938
H      -0.48009499     -2.10953005     -0.25656554
H       0.92473053      1.71506220     -0.41525574
H       3.40932750     -0.58775459      0.05396671
H       2.39770110      0.76182589      0.85075120
