16
b3lypvtz=-227746.93706801
C      -0.89458759     -1.83171250     -0.21932201
O      -0.86961326     -0.72264415      0.69340906
C      -0.73025117      0.50733247      0.11194675
N      -1.92206438      0.97624903     -0.43160439
C       0.45295658      1.13829258      0.08080608
C       1.73281049      0.49805050      0.51309751
O       2.35187527     -0.32529478     -0.49826508
H       0.06696534     -1.91556810     -0.72863401
H      -1.69708430     -1.71783779     -0.95081768
H      -1.07275151     -2.71792217      0.38518979
H      -1.90848041      1.94424857     -0.71370503
H      -2.73213048      0.74953323      0.12745312
H       0.48654723      2.14604404     -0.31695262
H       2.43933097      1.26795730      0.84055617
H       1.56184927     -0.17682127      1.34983086
H       2.35032695      0.17392404     -1.32118553
