16
b3lypvtz=-202050.77760714
C       2.01607312     -0.55401038     -0.76723580
C       1.56413723     -0.22657353      0.62313948
N       0.48586119      0.32775628      0.98974518
C      -0.50275797      0.76578074      0.09955691
N      -0.51394309      1.88714441     -0.50035773
C      -1.71040415     -0.14478753      0.01210050
N      -1.32399261     -1.54767631     -0.17700697
H       2.22147745     -1.62456588     -0.83801923
H       1.27729497     -0.28526191     -1.51727354
H       2.95654248     -0.03840334     -0.98094173
H       2.25701473     -0.50241872      1.42091506
H       0.33481658      2.41548770     -0.29520687
H      -2.31956974      0.02866754      0.91018423
H      -2.28941151      0.18941097     -0.84577554
H      -2.12221507     -2.08592954     -0.48915935
H      -1.02329661     -1.95340550      0.70113940
