14
b3lypvtz=-203689.70366329
C      -2.02626577     -0.74750839      0.26267169
C      -1.09957694      0.41598725      0.26492661
C       0.24507318      0.35225324      0.20070587
C       0.98465456      1.63671659      0.24714145
O       2.18350025      1.76861748      0.16766111
N       0.91201955     -0.87927602      0.18163199
C       1.97054826     -1.04407652     -0.49678632
H      -2.79525850     -0.62774816      1.02940370
H      -2.55288547     -0.82135732     -0.69449719
H      -1.48752319     -1.67842799      0.42650425
H      -1.54202024      1.40589215      0.30578289
H       0.32347321      2.51617861      0.38570903
H       2.46911585     -2.00907169     -0.43837994
H       2.41514525     -0.28817923     -1.14189316
