19
b3lypvtz=-195136.68839593
C      -2.20103530     -0.44923854     -0.00193920
C      -1.26850343      0.75879482      0.05837063
C       0.22737077      0.44234841      0.04005795
C       1.05679610      1.71311732     -0.04935649
C       0.74525121     -0.59861031      1.06723059
C       1.08073131     -1.45947355     -0.15797079
O       0.56485743     -0.46102424     -1.06533209
H      -2.10168253     -1.09144345      0.87499353
H      -3.24183501     -0.12612647     -0.04877145
H      -1.99376676     -1.04925524     -0.88759321
H      -1.47604013      1.35199759      0.95486152
H      -1.47514610      1.41072953     -0.79576676
H       0.80581172      2.26512389     -0.95668197
H       2.12121708      1.47847759     -0.07816255
H       0.86886665      2.36082007      0.81012160
H      -0.00695186     -1.01215085      1.73484631
H       1.59827425     -0.26605242      1.65538121
H       2.14330040     -1.64998945     -0.32836920
H       0.53311419     -2.40163370     -0.24024862
