15
b3lypvtz=-237840.4413255
N       0.62901622      1.93454226     -0.18758356
C      -0.37238859      1.15993622     -0.21417988
O      -1.53840702      1.43581183     -0.82971839
C      -0.34853863     -0.20031913      0.48245971
N      -1.20921674     -1.11153229     -0.28917920
C       1.08287041     -0.69512388      0.69972453
O       1.77645925     -0.83210143     -0.53050614
H       0.43051618      2.80222799     -0.68330891
H      -2.02659317      0.58584176     -0.84400279
H      -0.82029969     -0.05657967      1.46015224
H      -0.66956737     -1.51527033     -1.04911428
H      -1.54318585     -1.87338350      0.28634795
H       1.60597962     -0.01692150      1.37770251
H       1.05405423     -1.68620445      1.15576373
H       1.94950115      0.06897613     -0.83455752
