14
b3lypvtz=-203643.09539085
C      -1.60097275     -0.52653745      0.50814754
C      -0.74279004      0.12637088     -0.58576387
C       0.69775197      0.28770497     -0.16063369
N       1.17510363      1.28362451      0.49545208
O       0.19026587      2.23664976      0.77910007
C       1.62414442     -0.75142741     -0.47874075
C       2.34185627     -1.66625425     -0.78171971
H      -2.62912262     -0.64125755      0.16282320
H      -1.61012099      0.08598853      1.40889884
H      -1.22092133     -1.51484505      0.76936374
H      -1.14299339      1.10960304     -0.83042968
H      -0.76717240     -0.48319468     -1.48897734
H       0.69052614      2.91605795      1.24229869
H       2.99444521     -2.46248329     -1.03981912
