17
b3lypvtz=-171044.59569786
C      -2.52755719     -1.15263716      0.07926077
C      -1.56913267     -0.45438261     -0.10642594
C      -0.40367691      0.40955613     -0.31215595
C      -0.72446003      1.86776093      0.06450955
C       0.80836859     -0.11307060      0.44816565
C       1.65412525     -1.21265687     -0.12356341
C       2.19382330      0.19328978     -0.05069798
H      -3.37336603     -1.77343426      0.23839288
H      -0.16009416      0.38206072     -1.38047997
H      -0.97162617      1.94352891      1.12403151
H       0.13845689      2.50418140     -0.13423423
H      -1.57341699      2.24110687     -0.50762716
H       0.67458276     -0.12269040      1.52348923
H       1.38411562     -1.59991631     -1.09704266
H       2.05658946     -1.95443969      0.55182716
H       2.28676235      0.74489967     -0.97735274
H       2.96530695      0.41310749      0.67407828
