14
b3lypvtz=-250331.20666641
C       2.80081777      0.19308003     -0.13274964
N       1.56847714     -0.56821127     -0.12675458
C       0.36273655     -0.01119261      0.12495691
O       0.16469043      1.15687520      0.41146210
O      -0.62471684     -0.93685081      0.01255193
C      -1.94357056     -0.43149545      0.32645732
O      -2.39192328      0.50315462     -0.58884758
H       2.56112185      1.21906582      0.13247777
H       3.51072589     -0.20247318      0.59588101
H       3.26742238      0.18351423     -1.11982454
H       1.57846009     -1.54572167     -0.36067790
H      -1.91171042     -0.03481463      1.34312106
H      -2.58693379     -1.30412745      0.26501480
H      -1.86459121      1.30081618     -0.44372866
