14
b3lypvtz=-226989.98597524
N       2.29218890     -0.93186456     -0.22141148
C       1.39643307     -0.25940130     -0.79995365
O       1.60573215      0.82523918     -1.57973595
C      -0.06344485     -0.63257455     -0.63246272
C      -0.75256967     -0.20638751      0.68160992
C      -1.65011120      0.65994775     -0.21666592
O      -0.92819429      0.24121782     -1.41182360
H       3.21941850     -0.55239671     -0.40610502
H       0.72938735      1.10831075     -1.90013626
H      -0.20016388     -1.67877294     -0.90539040
H      -1.25444335     -1.00911734      1.21413659
H      -0.11008122      0.33625950      1.36954739
H      -2.69725303      0.36062701     -0.27148229
H      -1.58679846      1.73901289     -0.07022662
