14
b3lypvtz=-180355.5586309
C      -2.87178406     -1.06777827     -0.23737611
C      -1.90095674     -0.37110032     -0.10538952
C      -0.71689620      0.41281905      0.04592151
C      -0.76333941      1.73688482      0.24880304
C       0.57047350     -0.33052797     -0.03529952
N       1.69227885      0.23706708      0.08300401
C       2.88761788     -0.57093197     -0.01066880
H      -3.73854163     -1.66965520     -0.35193100
H       0.15550376      2.29479437      0.35888724
H      -1.70463821      2.26335215      0.30525899
H       0.47818026     -1.41039588     -0.20573818
H       3.51287140     -0.19247244     -0.82233643
H       3.46666513     -0.46166137      0.90898202
H       2.68734348     -1.63680104     -0.18172723
