11
b3lypvtz=-259677.14429806
N       1.43013155      1.17570844      0.00011879
C       1.31436504     -0.16727064     -0.00005398
O       2.23055296     -0.96239195     -0.00030034
N      -0.01669905     -0.66153222      0.00032234
C      -1.18812448      0.03984183      0.00003381
O      -1.30933752      1.24677980     -0.00025655
O      -2.24016655     -0.81034421      0.00012086
H       2.35810444      1.55715867     -0.00059987
H       0.60862429      1.76158641     -0.00021186
H      -0.06707152     -1.66816897      0.00026171
H      -3.03637917     -0.26227317     -0.00006291
