15
b3lypvtz=-214542.63436272
C       3.26892366      0.13183152      0.14279038
C       2.06611430     -0.15907615     -0.35297454
N       0.83737653      0.12008306      0.23927012
C      -0.29465647     -0.76328986      0.00140136
C      -1.65841342     -0.06766537     -0.02304491
N      -1.61761922      1.28216215     -0.14315487
O      -2.68505428     -0.71567215      0.04911027
H       3.39705807      0.58101691      1.11980105
H       4.15778975     -0.06162403     -0.43709883
H       1.97480190     -0.61630739     -1.33240093
H       0.91810172      0.41634422      1.20217872
H      -0.37089035     -1.57879155      0.72672922
H      -0.16935630     -1.23098601     -0.97701292
H      -2.48206182      1.78466536     -0.24614625
H      -0.73579208      1.74611129     -0.27790487
