17
b3lypvtz=-215288.05720285
C      -3.00102426     -0.09796775     -0.07537052
N      -1.69964545     -0.74610584     -0.05003119
C      -0.65884351     -0.04615637      0.06400853
O      -0.62849413      1.31054519      0.15415925
C       0.71209182     -0.68917257      0.16429032
N       1.73820101      0.21572987     -0.35823726
C       3.09730210     -0.09347339      0.07956262
H      -2.96508845      0.96673777     -0.31826703
H      -3.63440357     -0.60940134     -0.80157458
H      -3.48202580     -0.20831423      0.90083611
H       0.31774500      1.54776591      0.09322139
H       0.92871072     -0.85166593      1.22438146
H       0.67895019     -1.67141179     -0.31466900
H       1.70143793      0.21960185     -1.37118485
H       3.16339724      0.02345538      1.16212418
H       3.42086743     -1.11247927     -0.17093814
H       3.79397771      0.60985552     -0.37615130
