12
b3lypvtz=-202899.59645712
O      -1.71887995     -1.71744419      0.62393568
C      -1.03782468     -0.85067863      0.20649717
C      -0.71507231      0.68906195      0.47390010
C       0.71434494      0.48744985      0.93216094
C       1.22114533     -0.35443892      0.01073727
C       0.05521293     -0.59073293     -0.92671931
N      -0.63162277      0.73285308     -1.01705430
H      -1.38158583      1.37481103      0.98454009
H       1.14919561      0.82631461      1.85907336
H       2.16939212     -0.86812668      0.00440715
H       0.16243830     -1.19073352     -1.82324789
H       0.01325631      1.46146436     -1.32823025
