13
b3lypvtz=-247068.09077323
C      -2.03168803     -0.96875191      0.00000215
C      -1.15812293      0.04261687      0.00000228
C      -1.59827992      1.48336068      0.00000269
C       0.27502595     -0.22688469      0.00000167
F       0.63277262     -1.52736734     -0.00000004
C       1.24423897      0.68916503     -0.00000079
F       2.53818994      0.34106671     -0.00000516
H      -3.09601320     -0.77874219      0.00000222
H      -1.70855690     -1.99894711      0.00000204
H      -1.22899877      2.01405711      0.88050268
H      -1.22899918      2.01405754     -0.88049721
H      -2.68450867      1.54555317      0.00000294
H       1.07426114      1.75301814     -0.00000248
