14
b3lypvtz=-227011.22099624
N      -0.71465078      1.02759894     -1.24791014
C      -0.15525084      0.18352858     -0.22927632
C       1.31761133      0.28825421     -0.00730988
O       2.04834875      1.02622093     -0.62234295
O       1.78226814     -0.53542761      0.96819167
C      -0.81690759     -1.17155966     -0.04388858
C      -1.04534382     -0.10077632      0.96868323
H      -0.26982131      0.83807882     -2.13940652
H      -0.51898462      2.00058841     -1.03928891
H       2.73666104     -0.38276510      1.02204565
H      -0.18708461     -2.00509814      0.22711515
H      -1.61078666     -1.38275122     -0.74491973
H      -0.57180573     -0.20052429      1.93345256
H      -1.99425329      0.41473243      0.95475477
