13
b3lypvtz=-211380.8414642
C       2.49092800     -0.44291987      0.00242776
C       1.07169187     -0.00053159     -0.00154646
N       0.64814925      1.22940155      0.00995891
N      -0.74243057      1.20773597      0.02299434
C      -1.10613280     -0.04319210      0.00422381
N      -2.40492365     -0.52661304     -0.08211193
N      -0.00813943     -0.85899350     -0.00442570
H       0.00222846     -1.85853300     -0.10948990
H       3.12561122      0.43995134      0.00038250
H       2.73104261     -1.04383705     -0.87792466
H       2.72666038     -1.03763397      0.88814097
H      -2.64471991     -1.19440495      0.63869597
H      -3.06016641      0.24324222     -0.07363663
