20
b3lypvtz=-205968.89892078
C       3.24047772     -0.75171981     -0.01115657
O       1.93003688     -0.38621038     -0.37938423
C       1.44506770      0.73914248      0.33151938
C       0.02642317      1.04355115     -0.11908467
C      -0.97771545     -0.05894933      0.21826950
C      -2.39216516      0.25992581     -0.25433973
N      -3.30867606     -0.83906453      0.06701205
H       3.30249702     -1.01984921      1.05155287
H       3.95577160      0.05862228     -0.20419181
H       3.51886914     -1.61740931     -0.60986364
H       2.09703934      1.60480238      0.14672932
H       1.46912511      0.53712917      1.41319838
H       0.03883631      1.21683993     -1.19906325
H      -0.28035450      1.98547174      0.34669362
H      -0.65904244     -1.00151417     -0.22755610
H      -0.98993272     -0.21455446      1.30380041
H      -2.38817980      0.37990466     -1.34117125
H      -2.70393752      1.22864754      0.16616901
H      -4.23696137     -0.64365470     -0.28868109
H      -3.40074296     -0.93504622      1.07235380
