19
b3lypvtz=-195139.10910785
C       3.66469156     -0.49554449      0.07818637
C       2.35384551      0.18200239      0.32908017
C       1.26556797      0.05214642     -0.42060967
C      -0.02315926      0.76484573     -0.16969652
O      -1.07395210     -0.18613121     -0.07353118
C      -2.35327305      0.40673011      0.06414582
C      -3.39241516     -0.69289748      0.14829126
H       3.62198992     -1.13878601     -0.80104249
H       3.95993481     -1.10716703      0.93521580
H       4.46422730      0.23529459     -0.07312364
H       2.31018452      0.83110923      1.20056572
H       1.27863025     -0.60070097     -1.28880344
H      -0.23932199      1.45941660     -0.99668803
H       0.04080226      1.36275375      0.74962154
H      -2.38168427      1.03347335      0.96693321
H      -2.55521687      1.06505010     -0.79306333
H      -3.19858299     -1.33816234      1.00544911
H      -3.37448968     -1.30683804     -0.75255071
H      -4.39055572     -0.26523371      0.25573098
