14
b3lypvtz=-227007.85283286
C      -2.59864505      0.46786792     -0.28536666
C      -1.22421427     -0.12346245     -0.40269390
O      -0.79314268     -0.98944139      0.65891126
C      -0.12083285      0.26688101      0.48932897
C       1.31086601      0.24025586      0.02065919
N       1.76139388     -0.98806247     -0.34049440
O       1.96448215      1.26451311     -0.04228050
H      -2.70300778      1.31707507     -0.96334822
H      -2.79031764      0.80682264      0.73221838
H      -3.35620698     -0.27134267     -0.55168523
H      -0.94695198     -0.48664814     -1.38910343
H      -0.31121122      1.01167771      1.25425481
H       2.72498564     -1.08678151     -0.60930324
H       1.21428678     -1.80193467     -0.11659804
