17
b3lypvtz=-191999.85971935
C       2.51357087     -0.85763671     -0.00012102
C       1.27598249      0.01653011      0.00004798
N       1.33459555      1.30916635     -0.00009773
C       0.01292055     -0.68352833      0.00028523
C      -1.21455634     -0.07767037      0.00010850
C      -2.48521117     -0.87953819     -0.00022834
N      -1.35861704      1.26300104      0.00053823
H       3.42256351     -0.25670418     -0.00032851
H       2.52579890     -1.50684748      0.87821595
H       2.52547901     -1.50698669     -0.87835916
H       2.29761826      1.63488871     -0.00046084
H       0.03722601     -1.76335034      0.00045589
H      -3.08840424     -0.64485893      0.88067907
H      -3.08793287     -0.64486202     -0.88147216
H      -2.27801329     -1.94667503     -0.00020948
H      -0.50235942      1.81638683     -0.00042992
H      -2.26880579      1.68346320     -0.00207867
