16
b3lypvtz=-204436.2463631
C      -1.96466050     -0.52128971      0.76703316
N      -0.66577693      0.05607551      0.51089802
C       0.51316458     -0.82218035      0.46279220
C       1.09727635      0.06199869     -0.67588991
C       2.03984011      1.11616540     -0.17589987
O       3.12041929      1.34925950     -0.65589440
C      -0.36303159      0.57431093     -0.83198071
H      -2.21882681     -1.33324266      0.06434379
H      -1.99697818     -0.92443069      1.78056002
H      -2.73349135      0.24935819      0.69067591
H       0.29311263     -1.83517851      0.09765796
H       1.07642177     -0.89601137      1.39585908
H       1.53638409     -0.45092527     -1.52671669
H       1.66751526      1.69160993      0.69770733
H      -0.88142710      0.03710680     -1.63858970
H      -0.51984162      1.64747363     -0.96255620
