12
b3lypvtz=-202900.60864245
C       2.49378851     -0.80535264      0.36644670
N       1.56316368      0.04181921      0.17121095
C       0.23848445     -0.34837943      0.15951706
C      -0.69159850      0.61495514     -0.05437885
C      -2.08563553      0.34701158     -0.08970417
C      -3.26465077      0.11931289     -0.11921982
O      -0.34623964      1.90746776     -0.24968137
H       3.52518732     -0.46955228      0.37034103
H       2.30367627     -1.86950894      0.53282415
H      -0.05546356     -1.38146051      0.31427860
H      -4.30705096     -0.08003352     -0.14564860
H       0.62633872      1.92372075     -0.19660473
