17
b3lypvtz=-194357.39374274
C       3.14786744     -0.36256153     -0.21635414
C       2.00011444     -0.14637122      0.05914050
C       0.60396291      0.14440246      0.40591522
O       0.23363467      1.46032323     -0.02141893
C      -0.35946520     -0.86836742     -0.22444715
C      -1.80775487     -0.79582998      0.27941298
C      -2.64807457      0.35373039     -0.28054589
H       4.16075025     -0.55868193     -0.46568848
H       0.50837784      0.07380272      1.49835983
H       0.91327557      2.07587661      0.27132403
H      -0.32247368     -0.74040972     -1.30926381
H       0.04288664     -1.86036297     -0.00914102
H      -2.29286347     -1.74176261      0.02363015
H      -1.80262219     -0.75109417      1.37359950
H      -3.67467953      0.29188188      0.08562615
H      -2.23917022      1.32229526     -0.00105655
H      -2.68303802      0.31278799     -1.37159438
