14
b3lypvtz=-201277.13094082
C       0.95382280      1.89790281     -0.11288560
N      -0.04103327      1.14246927      0.13010138
C      -0.08531244     -0.24309428     -0.02338352
C      -1.34653002     -0.77809892     -0.06020587
N      -2.48922540     -0.05957374      0.02245897
N       0.93988364     -1.17715699     -0.10586269
C       2.17443672     -0.97096093      0.12737466
H       1.91535298      1.56631421     -0.49858159
H       0.82963788      2.96866684      0.03147706
H      -1.44539434     -1.84559528     -0.19432828
H      -3.34921207     -0.52126226      0.25416240
H      -2.38916909      0.91246845      0.27436839
H       2.61534924     -0.02176508      0.42631861
H       2.85031938     -1.82059909      0.06710409
