17
b3lypvtz=-217668.14576788
C       3.15550486     -0.80947926     -0.06356941
C       2.22108607      0.32224177      0.30583323
O       0.91855628      0.00532623     -0.18279323
C      -0.01324958      0.98354782     -0.01694268
C      -1.32489402      0.75071909     -0.03398735
O      -1.85729891     -0.48979132     -0.21881876
C      -3.20298933     -0.62678981      0.20645027
H       2.81515942     -1.74644268      0.37733775
H       3.19786464     -0.93528161     -1.14557084
H       4.16225732     -0.60083395      0.30144296
H       2.18216511      0.45858157      1.39256673
H       2.55826539      1.26704059     -0.13816210
H       0.34709970      2.00175533      0.08031111
H      -2.01792968      1.58077272      0.04747715
H      -3.85253207      0.10302932     -0.28916773
H      -3.29343358     -0.50564254      1.29049706
H      -3.52055460     -1.62961029     -0.06972814
