15
b3lypvtz=-216876.2644732
C       2.09755082     -0.49086482     -0.16544730
O       0.90070291     -0.41378002     -0.93438647
C      -0.19050504      0.02891293     -0.22189924
C      -0.62847238      1.48737383     -0.10417767
O      -2.02918500      1.09091986     -0.20860937
C      -1.64263218     -0.27290344     -0.42239691
C      -0.93473608     -0.81597875      0.78878699
H       2.87052854     -0.87686532     -0.82632606
H       1.97636991     -1.16637026      0.68665352
H       2.40158332      0.49392503      0.20339215
H      -0.33519120      2.08160780     -0.97159322
H      -0.41700715      2.02554203      0.82218750
H      -2.18550892     -0.85910413     -1.14955802
H      -1.18762051     -0.44161838      1.77415800
H      -0.69577704     -1.87059637      0.72941609
