17
b3lypvtz=-194332.44460612
C       2.32426070     -0.05185671      0.64025952
C       1.12499148     -0.79913808      0.05230311
C      -0.20262178     -0.25008934      0.53533752
C      -0.78579513      1.04774683     -0.09491936
C      -2.19096099      0.64517400      0.39886852
C      -1.50658003     -0.58117447     -0.23981825
O      -1.05145619      0.29758651     -1.35144241
H       2.31866777      0.99963521      0.34606531
H       2.32294541     -0.08981904      1.73217731
H       3.26465945     -0.48451931      0.29583928
H       1.18628233     -1.85618970      0.32958543
H       1.15173743     -0.75530943     -1.03683160
H      -0.29583873     -0.30311486      1.62334017
H      -0.34374774      2.03724754     -0.18904853
H      -2.37415075      0.63023541      1.47322461
H      -3.01575775      1.06186415     -0.17339632
H      -1.92663549     -1.54827872     -0.50860022
