13
b3lypvtz=-213744.35443551
C       2.78023738      0.18420344      0.22600887
C       1.55521694     -0.35520232      0.19052701
C       0.34260107      0.41734235      0.18827690
C      -0.90318371     -0.10701074      0.15268252
N      -1.98653692      0.78883038      0.15512896
N      -3.08782447      0.19190203      0.11992051
O      -1.16587370     -1.42266472      0.11520142
H       2.92617363      1.25713667      0.25571911
H       3.66829241     -0.43209986      0.22626364
H       1.44661676     -1.43309898      0.16132639
H       0.39568720      1.49693197      0.21636100
H      -3.82854879      0.89835301      0.12379297
H      -2.14285779     -1.48462323      0.09583796
