15
b3lypvtz=-191189.87949522
C       3.38337520      0.16504633     -0.24230492
C       2.25766419     -0.05457196      0.10727867
C       0.89032020     -0.29918979      0.55343783
N      -0.08540968      0.35629016     -0.33173197
C      -1.44802518      0.11431209     -0.10353455
C      -2.34469123      1.09009058      0.10409057
N      -1.75835151     -1.25034345     -0.12006653
H       4.38080849      0.35058150     -0.55378080
H       0.78902209      0.03740064      1.59510546
H       0.68882048     -1.36972369      0.55547833
H       0.10181821      1.34439597     -0.42000216
H      -3.40518450      0.88489404      0.10446963
H      -2.02904272      2.10954005      0.26849426
H      -1.36862136     -1.73866847     -0.91547493
H      -2.74318169     -1.43869201     -0.01544290
