16
b3lypvtz=-181142.94587216
C      -2.40780535     -1.18306450      0.00000264
C      -1.09613929     -0.92942224      0.00000072
C      -0.49435926      0.39833590     -0.00000074
C      -1.38186169      1.61023130      0.00000174
C       0.84843911      0.55402906     -0.00000220
N       1.73245352     -0.51708065     -0.00000148
C       2.98083301     -0.27851653     -0.00000889
H      -2.77564399     -2.20011384      0.00000265
H      -3.15506202     -0.40046876      0.00000405
H      -0.39360434     -1.75240248      0.00000003
H      -0.79637526      2.52852705     -0.00000277
H      -2.03257454      1.62181222     -0.87783836
H      -2.03256648      1.62181574      0.87784783
H       1.27280462      1.56034505     -0.00000712
H       3.68211463     -1.10733479      0.00003040
H       3.39714231      0.73578446      0.00003350
