9
b3lypvtz=-230684.39243053
N       2.33185004     -0.39958285     -0.00035745
N       1.56000487      0.55846838     -0.00024891
N       0.22043229      0.18751910     -0.00009988
C      -0.80330353      1.07297561     -0.00004049
N      -1.92535423      0.41439668     -0.00007203
N      -1.56835607     -0.91725617      0.00051213
N      -0.30055513     -1.06943653     -0.00034917
H       3.27136669      0.01197750     -0.00048852
H      -0.66702092      2.13975727      0.00001434
