18
b3lypvtz=-205194.85373575
C       1.34446040      1.50249524     -0.39958805
C       0.46923230      0.64313971      0.51989280
C       1.03896512     -0.76115965      0.70753956
O       1.30033061     -1.36077824     -0.56735240
C      -0.98479013      0.68059489      0.07180277
C      -1.62361697     -0.29866572     -0.83820218
N      -1.90702534     -0.32968182      0.60976137
H       2.36832730      1.55586155     -0.02474973
H       1.37864294      1.08475033     -1.40487374
H       0.95890927      2.52185866     -0.46395408
H       0.48743215      1.09094560      1.52142936
H       1.97057414     -0.68309245      1.28062094
H       0.32716008     -1.36250456      1.27875330
H       1.59786725     -2.26252066     -0.42112626
H      -1.37144574      1.69428264      0.00472597
H      -2.39708343      0.05983945     -1.50772077
H      -1.04476830     -1.13413134     -1.20410089
H      -2.81292463      0.08106038      0.80551604
