16
b3lypvtz=-204433.59094381
C      -0.94712484      1.56326435      0.14221762
C      -0.45299838      0.14291039     -0.05010171
C      -1.37723249     -0.83505327     -0.69382865
N      -1.07750688     -0.92450897      0.74660544
C       1.02080979      0.01908256     -0.24025812
C       1.78363012     -0.84584562      0.42260553
O       3.13023259     -1.00920154      0.28960725
H      -0.65423583      2.19571934     -0.69905312
H      -0.52052726      1.99963200      1.04806588
H      -2.03557113      1.59632889      0.22165373
H      -0.96795036     -1.64002161     -1.29098203
H      -2.35840709     -0.48817991     -0.99898816
H      -1.84726600     -0.54630803      1.28883652
H       1.46985434      0.68983110     -0.96907442
H       1.36878203     -1.52630635      1.15253192
H       3.46551140     -0.39114334     -0.37003768
