14
b3lypvtz=-203686.91960456
N       2.37292240      0.04881551      0.06061574
C       0.96222921     -0.01322607      0.00658852
C       0.25860159     -1.15813018     -0.06420770
O      -1.09833140     -1.17748431     -0.26055835
C      -1.77888394     -0.05431750      0.31189372
C      -1.10363459      1.23521755     -0.05995777
C       0.22746137      1.23537278     -0.16458423
H       2.80088499     -0.86165101      0.15852000
H       2.70831648      0.64987843      0.80271915
H       0.70187571     -2.14470433     -0.09824980
H      -2.79991548     -0.10735665     -0.06129770
H      -1.80494581     -0.17981282      1.40754239
H      -1.69857196      2.12223621     -0.23098534
H       0.78355043      2.12433840     -0.43447363
