16
b3lypvtz=-181054.19315356
C      -0.83606615      0.01371007     -1.09080124
C      -0.76535177      1.16701176     -0.08932147
C      -1.39447810      0.19996879      0.99819054
C      -0.24592689     -0.54182774      0.25605365
C       1.02191603     -1.41313571      0.19263359
C       1.70705964     -0.06686546     -0.25442618
N       0.59184851      0.68428710      0.45880386
H      -0.17079990      0.06051858     -1.94861183
H      -1.82730166     -0.33322713     -1.38342462
H      -1.00530827      2.22050197     -0.23686225
H      -2.42524293     -0.10926563      0.82861494
H      -1.18017401      0.46215776      2.03063587
H       1.02369395     -2.24697419     -0.50763517
H       1.37275991     -1.73740148      1.17078137
H       2.67030821      0.16775083      0.19256790
H       1.78136344      0.03469047     -1.33819895
