13
b3lypvtz=-234636.10179117
N      -2.01990357     -0.74937108      0.27370564
C      -1.50618375      0.38217102     -0.44094989
C      -0.18423702      0.60128498     -0.43415577
O       0.39849866      1.63428247     -1.07341242
N       0.68546681     -0.24511771      0.24982437
N       1.98727186     -0.00542092      0.24006920
N       2.67422929     -0.83006193      0.88737537
H      -2.67174492     -0.47300916      0.99885878
H      -2.51223993     -1.38980560     -0.33832071
H      -2.14628127      1.06591087     -0.98553750
H       1.35398357      1.56999713     -0.91622162
H       0.29912027     -1.04064268      0.74914443
H       3.64192000     -0.51991740      0.78972013
