14
b3lypvtz=-229601.96056973
N       2.69872662     -0.75830917     -0.12867797
C       1.51677003     -0.03033510      0.01247919
N       1.76966570      1.33387762      0.12855959
C       0.29075330     -0.60544101      0.02934157
C      -0.96237710      0.10385799     -0.06268049
C      -2.16469819     -0.45004265      0.07645554
F      -3.29715613      0.28424327     -0.05859720
H       3.42221626     -0.48861071      0.52422209
H       2.56509924     -1.75709496     -0.15163738
H       2.43753818      1.68556379     -0.54334729
H       0.95128528      1.91633953      0.19361342
H       0.25238200     -1.68491939      0.11270097
H      -0.95272814      1.16731051     -0.28214282
H      -2.37428404     -1.48795572      0.29533977
