14
b3lypvtz=-226977.60307351
C      -1.29219859     -1.21017222     -0.14079386
C      -0.41082897     -0.03982631      0.04303680
O      -0.28808250     -0.91037678     -1.09914169
C       0.74537221     -0.05657285      1.01034158
N       1.92492957      0.49970724      0.35081477
C      -1.02292314      1.28968194     -0.29053053
O      -1.00116968      2.24461874      0.43911272
H      -1.11583771     -2.08671822      0.47433713
H      -2.31463603     -1.07357858     -0.48011539
H       0.87702717     -1.07752388      1.39130281
H       0.48433638      0.58530491      1.85291342
H       2.28429259     -0.15219138     -0.33574900
H       2.66236306      0.68006623      1.01896129
H      -1.53264436      1.30758118     -1.27592750
