12
b3lypvtz=-254564.44160759
C      -0.57134070      1.99578570      0.00005610
C       0.08430025      0.64163170      0.00006150
C       1.41474188      0.55505464      0.00009448
F       2.11421908     -0.57915024      0.00010294
C      -0.84485534     -0.51400895      0.00002871
O      -2.04741527     -0.38572167      0.00000026
O      -0.25044518     -1.72680072      0.00004046
H       0.17170434      2.79234597      0.00008331
H      -1.21074767      2.11417953      0.87532892
H      -1.21070039      2.11419563     -0.87524909
H       2.06099939      1.42411173      0.00012109
H      -0.96985739     -2.37558830      0.00001932
