14
b3lypvtz=-255283.97685813
C       1.88661582      0.08277412     -0.11585876
C       0.42593447      0.36577077     -0.31690988
C      -0.55921233      0.37304053      0.82850579
C      -0.59890608     -0.72514641     -0.20489538
O      -1.64681350     -0.66308459     -1.14613710
O      -1.59760602      1.30612228      0.85587683
F       2.06258951     -0.85449584      0.90984120
H       2.42886838      0.98536140      0.17469810
H       2.34323107     -0.33705713     -1.01567464
H       0.22039276      1.09687530     -1.09146063
H      -0.19678037      0.13684178      1.81955580
H      -0.26764432     -1.72156515      0.06481157
H      -2.37349186     -1.20699196     -0.82278044
H      -2.12717753      1.16155492      0.06042757
