13
b3lypvtz=-239482.70474059
C      -1.40400761      0.59520661      0.50603615
C      -1.71332686     -0.69925940     -0.21838003
C      -0.36143256     -0.46257696      0.35353977
O       0.66526233     -0.24968229     -0.60918348
C       1.82768845      0.19823504     -0.12452432
O       2.10081021      0.39791170      1.02964664
O       2.66667629      0.38099983     -1.16065517
H      -1.81634822      0.76258801      1.49091364
H      -1.29400515      1.48251198     -0.10103389
H      -1.80141829     -0.65208647     -1.29436694
H      -2.34588957     -1.43341774      0.25981811
H      -0.02327627     -1.01102913      1.21978048
H       3.49926724      0.69059881     -0.78144372
