10
b3lypvtz=-225496.28236584
O       1.00333727     -0.13221781     -0.31722354
C       2.17660862     -0.04271477     -0.13847307
N       2.92250834      1.11398443     -0.08611157
C       4.20237781      1.04233655      0.11800405
C       4.92609775     -0.16983381      0.29874730
C       4.19643513     -1.30289323      0.24778966
O       2.88478930     -1.28791553      0.04178646
H       4.73540769      1.98952402      0.14856572
H       5.99071146     -0.18745923      0.46600785
H       4.59092664     -2.30421062      0.36530713
