20
b3lypvtz=-182672.29888463
C       3.06656832      0.46294489     -0.34367663
C       1.86306673     -0.48816347     -0.39350525
C       0.98642324     -0.37227658      0.82075542
C      -0.31963380     -0.11859331      0.88319509
C      -1.27868735      0.11283800     -0.25272290
C      -2.25625642     -1.05911277     -0.39232802
N      -2.05147868      1.33250508      0.04056857
H       3.71482554      0.32190606     -1.21011961
H       3.66664375      0.29127530      0.55232724
H       2.74205972      1.50480033     -0.32879799
H       2.23480593     -1.51697512     -0.45968843
H       1.29256827     -0.31358919     -1.30639316
H       1.50742217     -0.51736432      1.76443219
H      -0.78934425     -0.06569092      1.86145940
H      -0.71791548      0.19454955     -1.19191519
H      -1.72379993     -1.98237855     -0.62142984
H      -2.97131475     -0.87076094     -1.19738786
H      -2.81761112     -1.19754599      0.53278825
H      -2.71221157      1.51882760     -0.70543011
H      -1.43494832      2.13451935      0.09978084
