12
b3lypvtz=-249505.95666439
O      -2.04462807     -1.76091229      0.78393620
C      -1.53055024     -0.68674009      0.63210178
C      -1.15490142     -0.14697922     -0.73747985
O      -0.44270532      1.09063027     -0.66210916
C       0.82669031      1.02265999     -0.22249162
N       1.35556258     -0.06912158      0.14529718
O       2.68747603      0.13651050      0.55971692
H      -1.33609486      0.00198689      1.47821144
H      -0.58484945     -0.90080010     -1.28217126
H      -2.07062987      0.07898342     -1.28417391
H       1.32816723      1.98452925     -0.21668845
H       2.96656307     -0.75064705      0.80575073
