13
b3lypvtz=-239452.367337
O       1.69247982     -0.91242501      0.66811580
C       1.07586128     -0.10197431     -0.30828380
O       0.61983363      1.13524587      0.20291082
C      -0.74246268      1.01475696      0.64187451
C      -1.30010306     -0.14787944     -0.13648357
O      -1.04197092     -0.04950878     -1.54418121
C      -0.16842344     -0.84448304     -0.74215909
H       2.48214424     -0.45813178      0.97928957
H       1.76783435      0.13775300     -1.11948622
H      -0.79654383      0.80970524      1.71636779
H      -1.23958940      1.96143635      0.42973668
H      -2.22040575     -0.63777842      0.15523042
H      -0.12865426     -1.90671664     -0.94303170
