15
b3lypvtz=-216920.20124329
C       2.06859906     -0.03418249      0.05203195
C       0.62971992     -0.24116036     -0.38991758
C      -0.45763005     -0.72579078      0.62147282
C      -1.43301162      0.39823471      0.15434362
O      -2.46422951      0.00050604     -0.72857133
C      -0.23974019      0.99675249     -0.63411105
O      -0.04167689      2.06453632     -1.13315831
H       2.63456828      0.48942432     -0.71930187
H       2.56157695     -0.98802975      0.24629191
H       2.11747629      0.56310942      0.96440957
H       0.59389882     -0.85679033     -1.29426775
H      -0.15023870     -0.60750787      1.66090658
H      -0.82933916     -1.73632487      0.46567522
H      -1.80756151      1.05498130      0.94609410
H      -3.18241169     -0.37775814     -0.21179787
