19
b3lypvtz=-171840.40931204
C       0.77474758     -1.98439904      0.96213671
C       0.22835056     -1.41441248     -0.35589577
C      -0.18793494      0.03969363     -0.26759306
C      -1.49366484      0.34421692     -0.15707118
C      -2.14620893      1.68572870     -0.03155488
C       0.85283812      1.06954205     -0.29605175
C       2.16042441      0.87839930     -0.49032445
H       0.01284550     -1.94573368      1.74219269
H       1.63970765     -1.42404803      1.31643863
H       1.07669470     -3.02600406      0.83737106
H      -0.63436394     -2.00644285     -0.66607224
H       0.97842538     -1.53655967     -1.14159733
H      -2.19093172     -0.48944021     -0.15755781
H      -2.85604789      1.84312171     -0.84910845
H      -1.44642152      2.51801809     -0.03745677
H      -2.72685404      1.74377163      0.89400277
H       0.51881370      2.08985205     -0.15269087
H       2.59393855     -0.10040698     -0.64429012
H       2.84564164      1.71510292     -0.50487719
