16
b3lypvtz=-204467.51753217
C       2.32690540     -0.83755225     -0.30460692
C       1.01554194     -0.23524759      0.18504736
O       1.24789981      0.88934955      1.04296495
C       0.15649999      0.27961256     -0.96393612
C      -1.19475200      0.85788779     -0.50711930
C      -2.07792417     -0.15010618      0.07342588
N      -2.75868223     -0.96085542      0.52466403
H       2.14566346     -1.69450154     -0.95623303
H       2.90632730     -0.09478967     -0.85540974
H       2.93041888     -1.18357402      0.53698586
H       0.45002944     -0.99969211      0.73172556
H       1.68034090      0.58362972      1.84563916
H       0.70509696      1.07152587     -1.47867385
H      -0.00892372     -0.52639173     -1.68027882
H      -1.71303478      1.31729367     -1.35091626
H      -1.02330219      1.63632736      0.23734124
