16
b3lypvtz=-181160.36393501
C       1.65426222     -1.16832184     -0.38468217
C       0.49733207     -0.57687217      0.42044045
C      -0.85961034     -1.29309198      0.20391837
C      -1.81761155     -0.18428184     -0.13635636
C      -1.22118761      1.00779762     -0.20639270
C       0.21164218      0.89525822      0.08134676
N       1.01582354      1.88093600      0.04379875
H       2.57421826     -0.60058108     -0.23457124
H       1.42895358     -1.16136195     -1.45283062
H       1.85092843     -2.19939380     -0.08633356
H       0.75706698     -0.61560320      1.48219159
H      -0.80588807     -2.02290752     -0.61072970
H      -1.18373069     -1.85007808      1.08701183
H      -2.86973098     -0.36375290     -0.31433444
H      -1.68689875      1.95159357     -0.44894998
H       1.96768272      1.58995994      0.27135502
