13
b3lypvtz=-234678.04478796
N      -0.91498934     -1.38394965     -0.02795530
C      -0.90699801     -0.02290180     -0.23036213
N      -1.98349081      0.47754398     -0.93851531
N      -0.00485897      0.80285174      0.18413916
N       1.09310509      0.16193658      0.80780073
C       2.35536886      0.63650614      0.57366122
O       3.31559476      0.37937790      1.26639210
H      -1.40148694     -1.91777691     -0.73115376
H      -0.00686109     -1.75875375      0.20652897
H      -2.00748899      1.48629529     -0.92684465
H      -2.87544769      0.06537551     -0.70929942
H       0.93968074     -0.17733276      1.75165999
H       2.39797239      1.25092773     -0.34015160
