19
b3lypvtz=-171820.83165024
C      -2.43692792      0.00000027     -0.07151333
C      -1.33729197      1.08121626      0.07888549
C      -0.27639344     -0.00000006     -0.27439610
C       1.04214482     -0.00000025      0.44257259
C       2.22118552     -0.75306937     -0.11671707
C       2.22118529      0.75306974     -0.11671640
C      -1.33729229     -1.08121605      0.07888552
H      -3.24850345      0.00000040      0.65507943
H      -2.86935495      0.00000032     -1.07259409
H      -1.39432009      1.96423355     -0.55729008
H      -1.23380679      1.40673007      1.11571913
H      -0.10206057     -0.00000011     -1.35433714
H       0.95809626     -0.00000073      1.52456342
H       2.09039252     -1.25794902     -1.06488545
H       2.87959162     -1.26524473      0.57129456
H       2.09039213      1.25795021     -1.06488433
H       2.87959123      1.26524470      0.57129569
H      -1.39432069     -1.96423335     -0.55729000
H      -1.23380722     -1.40672984      1.11571917
