15
b3lypvtz=-212146.1814613
C      -2.37400423     -0.88999546      0.04963504
C      -1.21837019      0.08317170     -0.02110674
N      -1.31347076      1.35230109     -0.09533838
N       0.01427238     -0.54745650     -0.00640251
C       1.29021618      0.05316993      0.01678837
N       1.56990910      1.28497707      0.06924819
N       2.29145054     -0.93011235      0.02790147
H      -2.33155077     -1.47420003      0.97186108
H      -2.34375783     -1.58921441     -0.78861900
H      -3.32161055     -0.35749239      0.02389309
H      -2.28676061      1.63904232     -0.11182262
H       0.00574320     -1.53224371      0.19964889
H       0.71985100      1.83982164      0.13147545
H       3.19999099     -0.49207388     -0.02589472
H       2.18684656     -1.63538002     -0.68928360
