17
b3lypvtz=-215283.65701229
C      -0.91734260      0.35121494     -1.01108722
C      -2.05702989      0.15198118     -0.01847685
O      -1.79808636     -1.03279871      0.73933301
C       0.40345253      0.62466029     -0.32305491
N       0.66251779      1.79673938      0.08052461
C       1.32878339     -0.57024305     -0.14966751
N       2.47403629     -0.25904106      0.70080099
H      -0.84865213     -0.53377238     -1.64911311
H      -1.16113469      1.20869341     -1.63906302
H      -2.11517761      1.02811840      0.63459193
H      -3.00407041      0.05982297     -0.56245186
H      -2.45955526     -1.10588503      1.43257103
H       1.58437477      1.79566548      0.52636266
H       1.69354509     -0.85174403     -1.14294721
H       0.72053359     -1.41196169      0.20166604
H       3.25398402     -0.87031946      0.50178522
H       2.23982148     -0.38113064      1.67822623
