13
b3lypvtz=-234627.60794216
C      -1.92385408     -0.58754853      0.46683070
N      -0.47648881     -0.65744150      0.40527517
C       0.14318822      0.35591381     -0.01029163
N      -0.35061749      1.57816119     -0.41369565
O       1.52167223      0.37851506     -0.12505517
N       2.06364440     -0.89418539     -0.44989281
N       3.26756834     -0.84598960     -0.27122533
H      -2.27110115      0.12112941      1.23155611
H      -2.37354410     -0.29231588     -0.48932252
H      -2.31841493     -1.56599503      0.73512050
H       0.32892336      2.31316473     -0.52217777
H      -1.22131125      1.86579272      0.00063964
H       3.61033526     -1.76920098     -0.55776123
