17
b3lypvtz=-191980.2176186
C       2.30036651      0.29967489     -0.21768335
C       0.85710751      0.79722369     -0.29998673
C      -0.16724294     -0.32756329     -0.29621833
C      -0.46214608     -1.06353302      1.04766270
N      -1.88444744     -0.73674543      0.83976465
C      -1.63867054      0.08954551     -0.25203029
N      -2.30108916      0.90484482     -0.95294068
H       2.54144448     -0.35116033     -1.06092192
H       3.00447361      1.13286551     -0.23015552
H       2.47840340     -0.26767669      0.69865610
H       0.71254371      1.38286438     -1.21036872
H       0.64802571      1.47605009      0.53212515
H       0.02840115     -1.02591448     -1.11210723
H      -0.25412325     -2.13302172      1.08222532
H      -0.01236737     -0.57358808      1.91476493
H      -2.58544571     -0.59850134      1.55244908
H      -3.26523358      0.99463550     -0.63399812
