18
b3lypvtz=-181894.28433195
C      -3.37448965      0.39328040     -0.13378555
C      -2.27064951     -0.34158447      0.03140635
N      -0.99024102      0.12148932      0.26934622
C       0.16168654     -0.65534690     -0.16655885
C       1.43077666     -0.15372450      0.47252004
C       2.75513216     -0.39909964     -0.19355292
C       2.18515819      0.99428898     -0.15015615
H      -3.34945531      1.47583947     -0.14669946
H      -4.33669249     -0.08434436     -0.23364501
H      -2.33987360     -1.42493169      0.03118005
H      -0.87431205      1.11810719      0.15440237
H      -0.01459769     -1.69597475      0.11934675
H       0.28086279     -0.64575633     -1.26109212
H       1.42144411     -0.18596348      1.55511365
H       3.60703963     -0.62404858      0.43232100
H       2.75563918     -0.91227752     -1.14605475
H       2.65057232      1.71911686      0.50281957
H       1.80455873      1.40715000     -1.07565419
