17
b3lypvtz=-171064.04433116617
C      -2.91448154      0.27040341     -0.41503942
C      -1.82367270     -0.62084127      0.09489438
C      -0.52041183     -0.38984470     -0.03645742
C       0.32229652      0.72993725     -0.67577343
C       1.50984698     -0.10509829     -0.19651550
C       0.72424177     -1.05830065      0.34710261
C       2.97871049      0.11409429     -0.31866303
H      -3.56093152     -0.25620891     -1.12361422
H      -2.51259734      1.15004893     -0.91859013
H      -3.56054395      0.61470164      0.39825421
H      -2.13308397     -1.52510680      0.61175479
H       0.22117645      1.71631077     -0.21516331
H       0.22314792      0.83269779     -1.75973342
H       0.93038450     -1.98088004      0.87462066
H       3.19856519      1.04187437     -0.84675512
H       3.45713273      0.16795169      0.66269968
H       3.46022032     -0.70173947     -0.86407385
