14
b3lypvtz=-180397.41383284
C      -2.42622333      0.55669689      0.00000606
C      -1.15390940      0.12491072     -0.00000206
C      -0.67178765     -1.25520227     -0.00000349
C       0.67178749     -1.25520236      0.00000268
C       1.15390939      0.12491058     -0.00000094
C       2.42622340      0.55669665      0.00000735
N       0.00000002      0.90148943     -0.00001366
H       0.00000010      1.90459348      0.00002219
H      -3.23695626     -0.15482468      0.00001156
H      -2.67693287      1.60801497      0.00000452
H      -1.32846430     -2.11028900     -0.00000260
H       1.32846408     -2.11028918      0.00000203
H       2.67693301      1.60801476      0.00000596
H       3.23695632     -0.15482500      0.00001940
