15
b3lypvtz=-214521.91816028
C      -3.25360223      0.00635693     -0.12457011
C      -1.95681945     -0.12198496     -0.40693028
N      -0.89646804      0.05195306      0.48661614
C       0.30691392     -0.70042024      0.30772783
C       1.43810010     -0.02880617      0.01482489
N       2.66731525     -0.58501016     -0.27216718
O       1.46354650      1.31949783     -0.07995113
H      -3.99369318     -0.08703444     -0.90416968
H      -3.60629493      0.22302231      0.87654491
H      -1.62581839     -0.34999520     -1.41343923
H      -1.20632616      0.13239417      1.44702803
H       0.29314034     -1.78154710      0.37590043
H       3.44772143      0.00588635     -0.02910869
H       2.78304902     -1.53626598      0.03738259
H       0.54615980      1.60058562      0.08043148
