14
b3lypvtz=-222218.30138818
N      -2.21122374     -0.99878538     -0.28863032
C      -1.28822661     -0.17118231      0.01666496
N      -1.43159593      1.16581885      0.34764876
N       0.01984453     -0.65408737      0.01855194
C       1.22862438      0.04926461     -0.08698945
N       1.41015012      1.26335844     -0.43504707
N       2.30957134     -0.71904899      0.30019754
H      -3.13507796     -0.58927310     -0.19200135
H      -0.72142759      1.56963136      0.93944522
H      -2.37010027      1.43959535      0.58627103
H       0.03737475     -1.64795415     -0.14894527
H       0.55386960      1.69647383     -0.75746414
H       2.20385001     -1.71464259      0.37933627
H       3.19514237     -0.39678854     -0.05085011
