14
b3lypvtz=-250304.09591025
C       2.49910403     -0.28785602      0.27999296
O       1.16035827     -0.64134325     -0.05096661
C       0.22259647      0.35818345      0.22366004
O       0.37507876      1.49383265     -0.59811926
C      -1.15953573     -0.26730537      0.06256347
N      -1.44848629     -1.38926811     -0.43478207
O      -2.11558037      0.57152290      0.51641628
H       2.82888519      0.58766818     -0.28154396
H       3.12049393     -1.14211159      0.02250202
H       2.59348304     -0.08379169      1.35174933
H       0.33883205      0.73691067      1.24429785
H       0.16395700      1.24339885     -1.50573410
H      -0.60106052     -1.88475440     -0.69913153
H      -2.96318781      0.12654574      0.37155456
