14
b3lypvtz=-203715.02348859
C       1.90393139     -1.06155338     -0.00000637
C       0.49263479     -0.56861135     -0.00002311
C       0.01600083      0.70167941     -0.00000657
C       0.63266516      2.04899843     -0.00000127
O      -1.35978380      0.62974993     -0.00001980
C      -1.63011557     -0.69596071     -0.00012264
N      -0.58858348     -1.45137213     -0.00000843
H       2.45404225     -0.72468972      0.88103826
H       1.90208536     -2.14970194     -0.00001076
H       2.45406421     -0.72468308     -0.88103539
H       0.33885738      2.62384598      0.88141532
H       1.71781944      1.95914201     -0.00002911
H       0.33881653      2.62386377     -0.88139219
H      -2.66775850     -0.98336522      0.00002705
