17
b3lypvtz=-171051.37978436
C      -3.19880330      0.02974733     -0.08994601
C      -2.07550141     -0.33788147      0.11765647
C      -0.70656798     -0.78045206      0.35413730
C       0.36635839      0.05265087     -0.40176492
C       0.37571232      1.50873902      0.05637700
C       1.69701176     -0.64639465     -0.28964243
C       2.83025199     -0.14510672      0.18543623
H      -4.19469065      0.34991360     -0.26816885
H      -0.62043221     -1.82986899      0.05861152
H      -0.49176902     -0.74465282      1.42650724
H       0.08139688      0.02932509     -1.46013450
H       1.09139778      2.09722094     -0.51850067
H       0.64322631      1.58912251      1.11231378
H      -0.60975733      1.95427675     -0.07390579
H       1.69740727     -1.67479198     -0.64332680
H       2.90842300      0.86949133      0.55308104
H       3.73258519     -0.74139275      0.21823341
