17
b3lypvtz=-191974.36345722
C      -3.69372007     -0.14470670      0.18374984
C      -2.46837052      0.38358814      0.12699340
N      -1.29608596     -0.30019165     -0.11644619
C      -0.03997748      0.27564364     -0.15648531
C       1.11363412     -0.36554625     -0.36512331
C       2.44138492      0.32220314     -0.40599961
N       3.35128199     -0.24190987      0.60254544
H      -3.87491433     -1.20189265      0.03808910
H      -4.54556228      0.48654950      0.37996605
H      -2.32117431      1.44672920      0.27825879
H      -1.35795688     -1.29496316     -0.26548228
H      -0.05128152      1.34972510     -0.00575579
H       1.12423518     -1.44297857     -0.49885342
H       2.91504654      0.16094734     -1.38031622
H       2.28637653      1.40719724     -0.31113325
H       4.26799910      0.18514547      0.53423417
H       2.99877695     -0.04827291      1.53300659
