15
b3lypvtz=-212106.39345755
C       2.40332684      0.21268039      0.73291539
N       1.79039989     -0.30387418     -0.50295242
N       0.52128356     -0.90667092     -0.26679589
C      -0.44936967     -0.06399690     -0.20352653
N      -0.32608557      1.30317188     -0.33168173
C      -1.78134882     -0.64703225      0.07568782
N      -2.84806359     -0.03911174      0.39762959
H       2.41391395     -0.53043162      1.53734495
H       1.86225448      1.09005162      1.08414287
H       3.42722588      0.50859947      0.50485459
H       2.37069407     -1.06146846     -0.83966746
H      -1.14254089      1.77919029     -0.68380065
H       0.52954472      1.56489677     -0.80588532
H      -1.79467906     -1.73242284     -0.00078262
H      -2.70198279      0.96916750      0.48086441
