14
b3lypvtz=-226981.3310822
C       2.51337878      0.03780058     -0.27054261
O       1.37821444     -0.48034450      0.40423842
C       0.14435992     -0.14567450     -0.19138312
C      -0.33533584      1.24954675      0.22549045
N      -1.44780562      1.78564301     -0.02379707
C      -0.86440510     -1.21270081      0.21156447
O      -1.98516161     -1.25518672     -0.22066075
H       2.56097841     -0.33213144     -1.30109896
H       3.38966671     -0.30716513      0.27360476
H       2.51602742      1.13237119     -0.28993444
H       0.21374417     -0.17529980     -1.28815701
H       0.39879500      1.79920835      0.81930327
H      -2.05676226      1.15897081     -0.55574879
H      -0.47560242     -1.94751978      0.94170337
