12
b3lypvtz=-202919.64677788
C      -0.30559954      1.58772124     -0.00053218
C      -1.37692776      0.79306448     -0.00193982
N      -1.42538001     -0.61822226     -0.00215920
C      -0.47006676     -1.42949646     -0.00147702
O       0.90620981     -1.29420502     -0.00034539
C       1.57652314     -0.07915730      0.00106800
C       1.09481484      1.15795754      0.00103497
H      -0.48107881      2.65629553     -0.00053508
H      -2.36311121      1.23794329     -0.00305494
H      -0.67362579     -2.49590113     -0.00179213
H       2.63921448     -0.27262085      0.00231416
H       1.84592762      1.93692094      0.00231863
