15
b3lypvtz=-214495.24853074
C       3.04098357     -0.32328041      0.00000149
N       1.93052074      0.30173815     -0.00000367
N       0.79307073     -0.40015440     -0.00000188
C      -0.45282224      0.21850243     -0.00000178
C      -0.67456502      1.53568969     -0.00000002
O      -1.38376496     -0.77395549     -0.00000379
C      -2.75003636     -0.38921386      0.00000056
H       3.94878824      0.26267036      0.00000020
H       3.11660333     -1.41316891      0.00000920
H       0.80253228     -1.41353743      0.00000633
H       0.16359476      2.21096943      0.00000173
H      -1.67187994      1.93851956     -0.00000324
H      -2.99274913      0.19413321     -0.89107331
H      -2.99274399      0.19413081      0.89107740
H      -3.32189802     -1.31341213      0.00000078
