16
b3lypvtz=-181107.51656176
C       2.25049846     -0.36309837      0.66904540
C       1.14973660      0.01379623      0.04114107
C       0.52549132      1.33979983     -0.35729773
N      -0.61452907      0.62653506     -1.02567716
C       0.00167604     -0.71131672     -0.62511089
C      -1.22941189     -1.05387229      0.24669289
C      -1.75387847      0.36527652     -0.08425496
H       2.95118686      0.35909777      1.06978779
H       2.49241352     -1.41000718      0.80621656
H       0.22414932      2.00241114      0.45914642
H       1.11248207      1.92079415     -1.07214525
H       0.25841547     -1.41471700     -1.41862353
H      -1.02540886     -1.27431310      1.29298333
H      -1.83756447     -1.85505947     -0.16991993
H      -2.71803515      0.39601133     -0.59154639
H      -1.78722179      1.05866209      0.75956238
