11
b3lypvtz=-212998.37555297
N      -1.82673381      1.77142797      0.05579366
C      -0.98828435      1.01528477     -0.15909735
C       0.10505825      0.08868555     -0.42033065
C       1.34386266      0.40682993      0.42612226
N       2.54550118      0.28880878      0.06598539
C      -0.28976654     -1.38310513     -0.16102551
O      -1.33053514     -1.73941963      0.30202604
H       0.38683888      0.15173751     -1.47654460
H       1.13043872      0.72380632      1.44651740
H       2.63722693     -0.00551382     -0.90848347
H       0.51286622     -2.09177922     -0.44074716
