17
b3lypvtz=-194379.50918463
C      -2.96473372     -0.79513882      0.30830372
C      -1.54994708     -0.54917080     -0.22630194
C      -1.17454625      0.90342072     -0.21958286
C       0.03272929      1.44426313     -0.00347348
C       1.31574342      0.79328991      0.24083127
C       1.71700567     -0.39922421     -0.21550570
O       2.92489182     -0.97884493      0.02122856
H      -3.70787540     -0.25934478     -0.28594713
H      -3.05749679     -0.45455547      1.34101886
H      -3.21805993     -1.85589950      0.27975913
H      -1.48624613     -0.94608967     -1.24709958
H      -0.82618318     -1.12022017      0.36130539
H      -1.99471998      1.59427975     -0.39315303
H       0.07939705      2.52899123      0.01610239
H       2.03259888      1.37112409      0.82132284
H       1.11641952     -1.02420949     -0.86006513
H       3.44609382     -0.41129200      0.60154067
