15
b3lypvtz=-216904.09349553
C      -2.61968319     -0.65065892     -0.15345503
C      -1.14728364     -0.71677412      0.11877336
C      -0.30016414      0.31380265      0.16647210
O      -0.63805925      1.63069846     -0.00073505
C       1.15216629      0.19990350      0.45767306
C       1.95460952     -0.96973126      0.10423434
O       2.05461494      0.22944430     -0.66445454
H      -3.19453312     -1.07228205      0.67526137
H      -2.99065007      0.36479452     -0.31145244
H      -2.88238432     -1.22390178     -1.04650781
H      -0.73267428     -1.69908309      0.29625478
H      -1.58237642      1.70476317     -0.17419782
H       1.48616250      0.82197612      1.28448955
H       1.49376371     -1.80665350     -0.40843577
H       2.82547947     -1.21333499      0.70493791
