16
b3lypvtz=-204428.75172252
C      -1.84392922     -1.64126776     -0.04937378
C      -1.09949246     -0.70059751     -0.00343956
C      -0.16407616      0.44503141      0.04344651
C      -0.82500059      1.69303030     -0.53900268
O       0.19269895      0.73789174      1.38919754
C       1.12112532      0.07838409     -0.73437634
N       1.84181936     -0.96483747     -0.00300962
H      -2.51476843     -2.46338736     -0.07649865
H      -0.12770862      2.52908699     -0.48412566
H      -1.71462101      1.94309364      0.03652379
H      -1.11575711      1.53127453     -1.57694398
H       0.87761680      0.08655629      1.61211370
H       0.86296638     -0.18904900     -1.76489977
H       1.74818720      0.97052052     -0.75906595
H       1.43015983     -1.87540554     -0.16803416
H       2.81302274     -1.00849387     -0.27942439
