14
b3lypvtz=-201298.6143238
C       0.11003177     -1.03899627     -0.25021238
C       0.74411478      0.24098515      0.22656197
C      -0.00013062      1.33237536      0.46136588
N      -1.39379967      1.39231985      0.30440385
C      -1.94198291      0.34944385     -0.19264492
N      -1.28423961     -0.78543439     -0.58638028
N       2.10765195      0.11794802      0.51416845
H       0.21598558     -1.81503345      0.52500061
H       0.64581178     -1.41560147     -1.13419146
H       0.46317199      2.24418912      0.82118464
H      -3.01459421      0.33175129     -0.36190343
H      -1.84388513     -1.57006909     -0.87156520
H       2.55690694      0.99494026      0.73676540
H       2.63495735     -0.37881821     -0.19255312
