11
b3lypvtz=-210581.77587002
C      -2.09673688     -0.19463084     -0.00002974
C      -0.76806131     -0.28683757     -0.00002136
N      -0.05790308     -1.51417878      0.00011327
N       1.17765846     -1.28016638      0.00001126
N       1.41113268      0.07278036     -0.00001660
C       0.23196489      0.80668281      0.00004133
N       0.01448891      2.05985404      0.00004849
H      -2.57344153      0.77509415     -0.00003741
H      -2.70672880     -1.08641752     -0.00001395
H       2.36125513      0.39975217      0.00009703
H       0.87351254      2.60630656      0.00004568
