14
b3lypvtz=-222145.07484156
C      -3.23066012     -0.14492520      0.34737796
N      -1.99005331     -0.21941153     -0.40177454
C      -0.83364596      0.33231456      0.03053579
N       0.30478000      0.00512656     -0.46202845
N       1.35463352      0.82922109      0.01608333
N       2.59956770      0.23344220      0.14230985
N       2.66267315     -0.99670391      0.24107204
H      -4.07805119     -0.16059275     -0.33702146
H      -3.26225335      0.79433454      0.89826410
H      -3.34439394     -0.96526060      1.06256694
H      -1.88982123     -0.96170584     -1.07749674
H      -0.93876312      1.10052575      0.79841475
H       1.47466341      1.66961094     -0.53679587
H       1.71977643     -1.41504480      0.13618330
