13
b3lypvtz=-218766.59692272
C      -3.07807214     -0.34016527      0.00004133
C      -1.87832721      0.24094962     -0.00003993
N      -0.71748532     -0.52947099     -0.00011821
C       0.43058399     -0.00578619     -0.00015983
F       0.61194945      1.34777516     -0.00000128
C       1.66944056     -0.76313430     -0.00009073
C       2.88433777     -0.21637551      0.00004717
H      -3.17085915     -1.41750123      0.00001853
H      -3.98060166      0.25373331      0.00012254
H      -1.78528529      1.32251537     -0.00005323
H       1.52759114     -1.83517360     -0.00014725
H       3.77088768     -0.83475083      0.00016138
H       3.02305818      0.85552546      0.00003250
