13
b3lypvtz=-213763.42735379
N      -1.23955711      2.39979101      1.07625328
C      -1.26214662      1.39899436      0.51104100
C      -1.31081348      0.13643835     -0.22135898
C      -0.00687714     -0.67762928     -0.13425458
O       0.20368382     -0.98614972      1.22907391
C       1.16446435      0.05666454     -0.76637626
N       2.18436452      0.50179643     -0.17328485
H      -2.12564076     -0.46788948      0.17979725
H      -1.54013880      0.34736823     -1.26783620
H      -0.17796496     -1.59128057     -0.71929294
H       0.90714250     -1.63971865      1.30123696
H       1.09185400      0.18979737     -1.84920006
H       2.11162968      0.33181739      0.83410146
