18
b3lypvtz=-181887.10523451
C       2.16682019     -0.23473211     -0.14386820
C       0.69657340     -0.05195600     -0.48058671
C       0.06606181      1.28732172     -0.06953209
C      -1.38855594      1.29872128     -0.42000831
C      -0.95109056      0.57024447      0.81819149
C      -0.29937800     -0.78308893      0.48036048
N      -1.04920418     -1.90092878     -0.06697686
H       2.80004982      0.39021579     -0.77770296
H       2.46937041     -1.27383548     -0.28845136
H       2.36927680      0.03412581      0.89580456
H       0.52638878     -0.30117090     -1.53234895
H       0.61607606      2.19420789      0.14037813
H      -1.74034140      0.75836639     -1.29386410
H      -1.91437110      2.22774339     -0.24282201
H      -1.31840797      0.86094861      1.79369084
H       0.25022427     -1.15218456      1.34785351
H      -1.67165513     -1.59294227     -0.80549916
H      -1.62783728     -2.33105630      0.64538171
