11
b3lypvtz=-238903.49308959
N       2.80277258     -0.56557259      0.32592276
C       1.63409814     -0.75267316     -0.11835802
C       0.53036521      0.26737336     -0.19953524
N       0.66387416      1.53027864     -0.18602231
N      -0.73130598     -0.32698044     -0.37888512
C      -1.69609336      0.10741633      0.28214164
F      -2.91493614     -0.38428433      0.08913561
H       2.93565890      0.39709241      0.65020378
H       1.36135866     -1.74605886     -0.47121960
H       1.64643265      1.79762237     -0.11755823
H      -1.68271482      0.87884728      1.04858873
