18
b3lypvtz=-205197.46532978
C       1.52370489      1.70928374     -0.32812806
C       0.55975361      0.95420145      0.60183817
C      -0.11731772     -0.19597167     -0.09822360
C      -1.49985731     -0.01139041     -0.66856398
C      -2.59534884      0.04380275      0.40509120
N       0.40464445     -1.34696409     -0.27018735
O       1.69875528     -1.44023836      0.29768113
H       2.31893178      1.04949626     -0.67122111
H       1.97838545      2.55114654      0.19590347
H       1.00481478      2.10246865     -1.20412581
H      -0.20060470      1.64208502      0.97528506
H       1.11204423      0.57435798      1.46119759
H      -1.69930226     -0.83225902     -1.35708117
H      -1.51740442      0.91514536     -1.25172272
H      -2.62677717     -0.88819488      0.97057370
H      -3.57332990      0.19431788     -0.05417142
H      -2.43331060      0.85991058      1.11092491
H       1.93724246     -2.35091977      0.10138799
