12
b3lypvtz=-200525.3516556332
C      -2.05713085      0.43430052     -0.25221270
C      -1.07104155     -0.45749438     -0.35086181
C       0.33977322     -0.21863326     -0.12911028
N       0.91479011      0.96204500      0.22114447
N       2.24850699      0.85130690      0.34989512
N       2.55745148     -0.38306015      0.08948690
C       1.42430705     -1.06925663     -0.20692576
H      -3.08273515      0.15106930     -0.43973988
H      -1.88768751      1.46990941      0.01572272
H      -1.31024939     -1.47874528     -0.62345378
H       0.48065065      1.85456811      0.38474882
H       1.44336496     -2.11600956     -0.45575292
