15
b3lypvtz=-193610.32681525
C       2.55076170     -0.40992229     -0.00769538
C       1.32475074     -0.38593152      0.51144462
C       0.21409056      0.46594741      0.03394181
C       0.39318758      1.73945063     -0.33414284
C      -1.12055529     -0.17983566     -0.01957768
C      -2.25849124      0.39246886      0.37373072
O      -1.13649477     -1.47767757     -0.47021141
H       3.32545154     -1.03900271      0.40999362
H       2.81548061      0.19580331     -0.86542708
H       1.08977133     -1.04939326      1.33878331
H      -0.42109571      2.32369661     -0.73881293
H       1.35337653      2.22433306     -0.22289203
H      -2.25179271      1.38110406      0.80240255
H      -3.19725834     -0.13646732      0.29554295
H      -0.27725652     -1.69627860     -0.84647223
