14
b3lypvtz=-224623.44298659
N       2.54558274     -0.40746535     -0.07568232
C       1.19622087     -0.71895416     -0.09678777
C       0.23620870      0.22037537      0.01736719
N       0.58799194      1.57859466      0.19290861
C      -1.21318001     -0.06316832     -0.02563629
N      -1.61816376     -1.37727408      0.06484342
O      -2.02703155      0.84429898     -0.14886982
H       2.76902123      0.42182248      0.45858054
H       3.17151830     -1.17376447      0.10910866
H       0.95185281     -1.74764304     -0.31597094
H      -0.25779691      2.13749864      0.20617417
H       1.18638521      1.91409200     -0.55394879
H      -2.61241094     -1.49667437      0.17212192
H      -1.04403663     -2.02839132      0.57110742
