14
b3lypvtz=-226961.8628706
C       3.46707387      0.35411398      0.00005649
O       2.31183726     -0.47843953     -0.00006175
C       1.12348689      0.16157527     -0.00003737
C      -0.04085044     -0.49941572     -0.00000674
C      -1.30341469      0.19298948     -0.00000824
N      -2.40427437     -0.45636263      0.00002027
O      -3.50248518      0.42424452      0.00001583
H       3.49754375      0.98438240     -0.89264782
H       3.49757384      0.98408432      0.89296983
H       4.32728022     -0.30982867     -0.00006965
H       1.16507537      1.24786032     -0.00005880
H      -0.05000040     -1.58163721      0.00001694
H      -1.31499367      1.28361599     -0.00003288
H      -4.25314143     -0.17756252      0.00003790
