13
b3lypvtz=-293683.77145401
C      -0.52978420     -0.12464697     -0.22841120
C      -1.95630356     -0.05543694      0.26431850
F      -2.76386652     -0.70119359     -0.63191499
F      -2.37961916      1.23903006      0.33597243
O       0.30161144      0.39535536      0.79248003
C       1.66288545      0.46366736      0.44581937
O       2.26274649     -0.79692344      0.28915930
H      -0.44786190      0.46514926     -1.14891047
H      -0.28493683     -1.16571111     -0.45337313
H      -2.09287771     -0.50902292      1.24761482
H       2.12950118      1.04277132      1.24473536
H       1.79270653      0.97094018     -0.51438624
H       2.30579877     -1.22397858      1.15142387
