12
b3lypvtz=-226216.60456973
C      -1.72259733     -0.13867362     -0.10450285
C      -0.36740106     -0.62761950      0.13651835
O      -0.86782644     -0.53559815     -1.19468344
C       0.76540151      0.34695858      0.45027659
C       2.06832275     -0.27755491      0.12591147
N       3.07532920     -0.77180126     -0.12752610
O       0.60231064      1.57841574     -0.21079391
H      -1.92248527      0.92419920     -0.04661290
H      -2.56300563     -0.79849781      0.07740338
H      -0.22050943     -1.63815171      0.50526250
H       0.76414822      0.55997583      1.52207270
H       0.38831284      1.37834763     -1.13332580
