16
b3lypvtz=-181107.44331886
C       1.54172035      1.35355744      0.12595810
C       1.35393023     -0.14505866      0.09255260
N       2.21916441     -0.97698344     -0.32637656
C       0.02429445     -0.67277939      0.58618603
C      -1.12674951     -0.38549994     -0.37704036
C      -2.55189504     -0.31271538      0.09627035
C      -2.02842550      0.81461863     -0.24436348
H       2.51280929      1.64199921     -0.27570096
H       0.76172938      1.85416014     -0.45117248
H       1.46279815      1.72482178      1.15107330
H       3.06197941     -0.49622486     -0.64586871
H      -0.21196749     -0.23198285      1.55931195
H       0.13071825     -1.75071863      0.71643376
H      -0.93972818     -0.78001641     -1.37615785
H      -3.39432208     -0.87026145      0.46446959
H      -2.12689315      1.87871181     -0.36578230
