13
b3lypvtz=-190486.79200845
C      -2.00605375      0.49467201      0.11321512
C      -0.54643892      0.14744129      0.03211877
C      -0.11436505     -1.17685278     -0.11506901
N       1.16823135     -1.51154387     -0.18925670
C       2.04651361     -0.50969815     -0.11595128
C       1.63292808      0.80610076      0.02972209
N       0.34363002      1.13935370      0.10404447
H      -2.53721775      0.17854165     -0.78709241
H      -2.48297896     -0.00174037      0.96102802
H      -2.12049277      1.56990553      0.22745232
H      -0.83557729     -1.98571143     -0.17389433
H       3.09821694     -0.76465537     -0.17473599
H       2.35360450      1.61418703      0.08841895
