15
b3lypvtz=-214510.42684284
C      -3.44880745      0.06635588      0.00001447
C      -2.00962623      0.45359869      0.00000119
N      -1.09148273     -0.42627090     -0.00003994
N       0.20127033      0.12169844     -0.00002629
C       1.08889668     -0.79067880     -0.00006105
O       2.39737867     -0.54188797     -0.00003054
C       2.79737825      0.83671522      0.00000469
H      -3.95733882      0.47638593     -0.87704077
H      -3.55442854     -1.01668775     -0.00000522
H      -3.95732508      0.47635375      0.87709286
H      -1.75140983      1.51477385      0.00001365
H       0.86636879     -1.85439444     -0.00003193
H       3.88349349      0.82452831      0.00005521
H       2.41739087      1.34386224      0.88619524
H       2.41747659      1.34388354     -0.88621058
