18
b3lypvtz=-181913.04923093
C       2.13024413      0.88020798     -0.01476416
C       0.99709295     -0.11226930      0.00132726
C       1.51803979     -1.52829549      0.01743509
C      -0.31178292      0.23052706      0.00227074
C      -0.80965111      1.65489446     -0.00475847
C      -1.37523539     -0.79307823      0.00887422
N      -2.63762155     -0.61363298      0.00977229
H       1.82164119      1.91771770     -0.08462508
H       2.73751923      0.76992683      0.88903665
H       2.79731666      0.67105518     -0.85628720
H       0.75808933     -2.29861936      0.07910394
H       2.11224367     -1.71532047     -0.88196764
H       2.19696114     -1.66154889      0.86467940
H      -1.43443354      1.85046815      0.87098830
H      -0.01167680      2.38888031     -0.00234324
H      -1.42886409      1.84628953     -0.88542242
H      -1.05571329     -1.83127094      0.01027099
H      -2.87556838      0.37874047      0.00714234
