18
b3lypvtz=-181890.13926164
C      -2.60479921     -0.64912150     -0.04007242
C      -1.27237278     -0.77725701     -0.02512413
N      -0.32293860      0.22926092     -0.08841335
C      -0.78477588      1.60266105     -0.02376750
C       0.95704060     -0.03768233      0.50638155
C       1.85929808     -1.05114768     -0.13725308
C       2.19625787      0.41562045     -0.21145758
H      -3.22130214     -1.53504682     -0.04730053
H      -3.11001755      0.30489073     -0.06327545
H      -0.83176951     -1.76634617      0.01538188
H      -1.51854846      1.78535158     -0.80974808
H      -1.25415420      1.84400735      0.94013588
H       0.05966919      2.27136964     -0.17735276
H       0.99064839      0.00952653      1.59463012
H       2.44811140     -1.68966155      0.50600972
H       1.50571320     -1.52054474     -1.04403884
H       3.02012773      0.79144117      0.37876819
H       2.06040187      0.90160837     -1.16733461
