16
b3lypvtz=-204419.71139434
C      -1.00065207     -0.26284213      1.08841722
C      -0.76024723      1.02215418      0.28121211
C      -1.03012906      0.12684779     -0.94460339
N      -0.55245308     -1.05092067     -0.12290889
C       0.92448145     -1.02974152     -0.12158716
C       1.49816419      0.40764200     -0.19178208
O       0.61455385      1.38738193      0.37068797
H      -2.05152219     -0.46884844      1.29603567
H      -0.40234082     -0.40478440      1.98820262
H      -1.34132135      1.92565583      0.46474526
H      -0.49122505      0.31774730     -1.87170088
H      -2.09263344      0.01681501     -1.15931224
H       1.28993852     -1.60335726     -0.97668980
H       1.25542078     -1.54623763      0.78071753
H       2.43952061      0.48664542      0.35200545
H       1.70024488      0.67574262     -1.23343940
