13
b3lypvtz=-213737.93239688
C      -2.29132072     -0.02711876      0.06829016
N      -0.88443661      0.00662083     -0.30152794
C      -0.16717462      1.17435392      0.02334349
C       1.15639130      1.14020978      0.07785274
O       1.82904104     -0.06089936     -0.18845263
C       1.03487451     -1.14725696      0.10240787
N      -0.22746755     -1.18229469      0.07956496
H      -2.44535170     -0.01401750      1.15471027
H      -2.73317163     -0.93427017     -0.33609324
H      -2.79054165      0.83388473     -0.37483336
H      -0.73032564      2.06926610      0.24102306
H       1.80692863      1.95533215      0.34317663
H       1.59979563     -2.02957607      0.36602500
