17
b3lypvtz=-191972.79998599
C      -1.83365888     -0.07635421     -0.75817933
N      -1.04593134      0.08433359      0.45718850
C      -0.23163157      1.29275272      0.46031048
C       1.14129672      1.11931594     -0.15303499
N       1.70065806      0.02678821     -0.46221496
C       0.97304301     -1.21864263     -0.20745523
C      -0.20105432     -1.07133875      0.76381723
H      -2.52094694      0.76497297     -0.85784225
H      -1.24264326     -0.13804259     -1.68527144
H      -2.43157300     -0.98547889     -0.67937890
H      -0.09676215      1.64902596      1.49138284
H      -0.76095886      2.09298742     -0.06214399
H       1.71083510      2.03680820     -0.32151752
H       1.69372863     -1.94823077      0.17056337
H       0.63985332     -1.60560789     -1.17557780
H      -0.81540986     -1.97398100      0.76732269
H       0.18372735     -0.94077429      1.77975430
