15
b3lypvtz=-191175.72884283
C      -3.46576171      0.35958754     -0.04855373
C      -2.27974724      0.19174476      0.06680695
C      -0.87855257      0.06804766      0.25238003
N      -0.22807987     -0.88239663     -0.32732874
N       1.07960873     -1.05334016     -0.11433942
C       1.97874056     -0.08755731      0.50152044
C       2.27433972      1.15031220     -0.35121135
H      -4.51269548      0.48847618     -0.16169938
H      -0.40991690      0.80091480      0.90614492
H       1.47910183     -1.69950253     -0.77290354
H       1.56800803      0.20234275      1.47132082
H       2.90384798     -0.62619458      0.71179831
H       2.76736523      0.86743025     -1.28222730
H       2.93419588      1.83208357      0.18825215
H       1.36383183      1.69164250     -0.60508714
