16
b3lypvtz=-202024.91730793
N      -0.75911937     -0.75918741      1.35589473
C      -0.38326673      0.19772832      0.32358200
C      -1.49432253      0.62765237     -0.63190328
N      -2.69318787      0.22907576     -0.65988729
C       0.79113708     -0.33758011     -0.47763577
C       2.17169824     -0.18629941      0.02227700
N       1.72036956      0.57653086     -1.15672237
H      -1.52853350     -0.42011882      1.92055055
H      -1.03503351     -1.64946972      0.95799527
H      -0.03948879      1.10848702      0.83095079
H      -1.19145036      1.36552932     -1.37953531
H      -2.85723564     -0.45963709      0.08118573
H       0.55409616     -1.21699156     -1.07002818
H       2.91095294     -0.94890198     -0.18564890
H       2.30650139      0.33503065      0.96234206
H       1.52698294      1.53805180     -0.89331703
