12
b3lypvtz=-223798.48175187
N      -3.35391378     -0.31762636      0.39396609
C      -2.15934531     -0.53302687      0.77279781
C      -0.94895364     -0.16257885      0.03258082
N       0.20858536     -0.42357146      0.50565835
C       1.31031951     -0.04981281     -0.23599956
N       2.46794579     -0.30972549      0.23916571
O       3.46234175      0.12882401     -0.62331023
H      -3.37075904      0.15756029     -0.51287085
H      -1.98786525     -1.03378011      1.72480944
H      -1.09586561      0.34233949     -0.93224328
H       1.19573204      0.45342216     -1.20054364
H       4.27187817     -0.11902401     -0.16401065
