17
b3lypvtz=-217668.47056051
C       2.77242167     -0.36352226     -0.12600085
O       1.66445176      0.45925463     -0.43130171
C       0.56215166      0.25289719      0.41664740
C      -0.65055916      1.14075466      0.09336227
C      -1.56152544     -0.06910122      0.36055247
O      -2.63305222     -0.18687557     -0.55532057
C      -0.33153190     -0.99992309      0.19356242
H       3.12368194     -0.19805212      0.90048492
H       3.57005526     -0.10193371     -0.81887415
H       2.53559568     -1.42737929     -0.24468596
H       0.87515590      0.34069803      1.46471085
H      -0.65818973      1.37613826     -0.97088557
H      -0.80360190      2.04921745      0.67264456
H      -1.93181825     -0.07671261      1.39059603
H      -3.17969042     -0.93711710     -0.30194624
H      -0.25799867     -1.33027744     -0.84314281
H      -0.22750416     -1.85028681      0.86683392
