11
b3lypvtz=-212979.84045423
N      -2.27013874     -0.14696556      0.00039632
C      -1.01403240      0.00590153      0.00008382
C      -0.24446063      1.23986691     -0.00030413
C       1.09374659      1.19890264      0.00002572
C       1.73269877     -0.09224310      0.00065893
N       1.10809942     -1.21260267      0.00071918
O      -0.27754349     -1.17661048      0.00026195
H      -2.74117259      0.75316989      0.00015974
H      -0.79521334      2.17079599     -0.00072707
H       1.69868749      2.09520178     -0.00021603
H       2.81097691     -0.18847491      0.00101457
