18
b3lypvtz=-205204.66262499
N       2.35986260      0.28580133      0.01264900
C       1.46695193     -0.87669312      0.16551883
C       0.09271198     -0.51725846     -0.35911692
C      -1.14412119     -1.41656045     -0.09704644
C      -1.98428271     -0.12032901      0.07915123
C      -0.66890933      0.62801638      0.34466548
O      -0.57902948      1.93537098     -0.17567397
H       2.59065036      0.42079173     -0.96567828
H       3.23687608      0.13138634      0.49558958
H       1.84104704     -1.78655933     -0.32494034
H       1.39686556     -1.10040486      1.23350203
H       0.14716533     -0.27950110     -1.42613400
H      -1.05161345     -1.97158635      0.83785566
H      -1.44201152     -2.10718842     -0.88367568
H      -2.41578690      0.20627084     -0.86709406
H      -2.75186616     -0.09843736      0.85094511
H      -0.43298330      0.61994336      1.41676959
H       0.33351616      2.22057150     -0.04747981
