16
b3lypvtz=-204463.40065586
C       2.99282924     -0.48145121     -0.65825520
C       2.18155370     -0.13523897      0.58927676
N       0.99567189      0.66014623      0.31030548
C      -0.24719869      0.15540199      0.19705929
C      -1.37192951      0.81120900     -0.18760802
C      -2.64193742      0.11663156     -0.22957403
O      -2.83125396     -1.05394020      0.06102368
H       3.87186868     -1.06982582     -0.38930772
H       3.33712411      0.42142352     -1.16599610
H       2.39442820     -1.05934205     -1.36320048
H       1.85155248     -1.04539266      1.09079418
H       2.80554162      0.40853012      1.30259630
H       1.14049197      1.61940857      0.03666638
H      -0.34515926     -0.89308943      0.45959915
H      -1.34916878      1.85669457     -0.47188664
H      -3.49455427      0.74255877     -0.56495803
