13
b3lypvtz=-190410.0162808
C       2.63077369      1.38901545     -0.10491272
C       1.60475479      0.82140984      0.14646908
C       0.37990892      0.14775353      0.48484872
C       0.22943941     -1.34684604      0.38022365
N      -0.40180114     -0.46850529     -0.58147910
C      -1.79224160     -0.31932737     -0.65353313
N      -2.47594520      0.73823869     -0.53239224
H       3.53671498      1.89074556     -0.33799293
H      -0.19260409      0.61566692      1.28076600
H      -0.39579623     -1.82412047      1.12724731
H       1.05910779     -1.93548513      0.01147460
H      -2.29397569     -1.25124544     -0.91493614
H      -1.88833564      1.54259976     -0.30588309
