15
b3lypvtz=-214516.01712394
C      -2.89434335     -0.37121547      0.09962349
N      -1.70000796     -0.80925343     -0.03160798
C      -0.61703208      0.02340284     -0.03739654
O      -0.74326868      1.40640657      0.08055407
C       0.63257372     -0.48912012     -0.11598073
N       1.77481821      0.25396414     -0.19769540
C       3.06277272     -0.30186666      0.16748993
H      -3.14746880      0.68061874      0.24905407
H      -3.71312192     -1.08218623      0.08743376
H      -1.38814962      1.72074137     -0.56466212
H       0.73968849     -1.56384362     -0.13437459
H       1.64639404      1.23985298     -0.03142570
H       3.18142552     -1.28307496     -0.29348208
H       3.19552868     -0.41634889      1.25035126
H       3.85716603      0.34064372     -0.21040644
