18
b3lypvtz=-205189.77327473
C      -3.06088951      0.38939239     -0.12608357
C      -1.59331619      0.41543825      0.24982768
O      -1.00718170     -0.81439433     -0.15746006
C       0.33506714     -1.00293761      0.24744043
C       1.33412505     -0.15049368     -0.50102994
C       1.86164417      1.10581934      0.08036420
N       2.71962011     -0.08590470     -0.01377039
H      -3.17746185      0.26900714     -1.20342997
H      -3.57033178     -0.43859227      0.36738304
H      -3.54469628      1.32131475      0.17069648
H      -1.08950756      1.26038165     -0.23259019
H      -1.47390841      0.53790275      1.33558600
H       0.44316195     -0.82656003      1.32944674
H       0.54601369     -2.05804993      0.05942156
H       1.25779461     -0.22618395     -1.58054773
H       1.49532994      1.40263024      1.05675026
H       2.14838860      1.92620287     -0.56558245
H       2.78962803     -0.53554389      0.89504592
