11
b3lypvtz=-233905.72000173
N       0.97980086      0.08990375     -0.10256322
C       0.27788250     -0.05067874      1.11432450
N      -0.05825526     -1.18612747      1.72667047
N      -0.69068667     -0.77211050      2.80816362
H      -1.07005917     -1.41474345      3.48058988
N      -0.80638069      0.55020238      2.97137722
C      -0.19286889      1.02013421      1.89812329
O      -0.07159698      2.33613410      1.65189186
H       0.48922593     -0.34265793     -0.87584828
H       1.90523965     -0.31896752     -0.05635234
H       0.40959872      2.41711118      0.81692301
