14
b3lypvtz=-250319.45561652
N      -1.82172811      1.15580872     -0.23741972
C      -1.60279024     -0.15909281     -0.00387900
O      -2.47477777     -1.00706667      0.02199291
C      -0.15052455     -0.55025080      0.23497510
O       0.71411709      0.57898132      0.16282031
C       2.06519649      0.29368649      0.43603541
O       2.67377862     -0.51140215     -0.53899631
H      -2.76389839      1.47099334     -0.38883320
H      -1.05737410      1.80722164     -0.22719669
H      -0.09350876     -1.01821197      1.22379948
H       0.12004856     -1.30334267     -0.50756549
H       2.54995463      1.26838357      0.52347590
H       2.16003258     -0.26038690      1.37404042
H       2.72510594     -0.01197311     -1.36126514
