12
b3lypvtz=-202877.3452535524
C      -0.34770189      1.45323247     -0.25780083
C       0.94622614      1.22719702     -0.51206305
C       0.97032461     -0.12328548      0.20279431
C      -0.54401056      0.16012364      0.50840838
N      -0.89705226     -1.04890782     -0.35395099
C       0.34223556     -1.28673897     -0.55763964
O       1.98598648     -0.46095506      1.09472844
H      -1.04322084      2.21156173     -0.58832550
H       1.69640483      1.75113750     -1.09102295
H      -0.97170923      0.14078382      1.50592114
H       0.76099425     -2.10228587     -1.14200460
H       2.25942295      0.33173702      1.56865530
