15
b3lypvtz=-191217.3296587
C      -1.27692565     -0.84894982      0.07155173
C      -1.39265840      0.64265310      0.04432218
C      -0.42560578      1.57109136      0.09039071
N       0.93757540      1.40194299      0.11015769
C       1.65943989      0.21304602      0.02827699
C       1.20619063     -1.02383414     -0.23029673
N      -0.08392713     -1.45097515     -0.53002258
H      -1.36838240     -1.18115767      1.11656732
H      -2.13733913     -1.26708599     -0.45657660
H      -2.40751292      1.01656718      0.04150914
H      -0.71501633      2.61411175      0.11754411
H       1.48423646      2.23847269      0.19128090
H       2.71975363      0.33830129      0.18692786
H       1.95104049     -1.80770521     -0.26063178
H      -0.15086875     -2.45647838     -0.52100093
