15
b3lypvtz=-191202.12270078
C      -0.80145942     -0.92396415      0.35048986
C      -1.50461259      0.42083195      0.12831523
N      -0.65244107      1.60704357      0.25322192
C       0.56201793      1.51127922     -0.10039940
C       1.22825092      0.28431165     -0.62058594
N       1.78333924     -0.70941364      0.32933872
C       0.53054955     -1.00107281     -0.38337664
H      -1.45529293     -1.73561306      0.02693614
H      -0.63757784     -1.07118907      1.42186372
H      -1.95225705      0.45514557     -0.87101425
H      -2.32913438      0.53434490      0.83287931
H       1.17335473      2.41235092     -0.03083468
H       1.84353686      0.42827676     -1.50181752
H       1.57671310     -0.42209386      1.28255695
H       0.63501294     -1.79043794     -1.11767341
