15
b3lypvtz=-216928.01289538
C      -2.35153689      0.22493154      0.70363886
C      -0.88694980     -0.03469825      0.86804355
C      -0.03371841     -0.29922244     -0.12026063
O      -0.46195761     -0.28291063     -1.43190060
C       1.43878262     -0.52904207      0.07843595
C       2.26431067      0.68975330     -0.29977286
O       3.22333286      1.06737475      0.31924578
H      -2.93955080     -0.42979217      1.35188390
H      -2.67012664      0.06804826     -0.32488384
H      -2.60439651      1.25217512      0.98182289
H      -0.47682281      0.00306551      1.86929676
H       0.13478074     -0.80395057     -1.97761486
H       1.77614467     -1.36247404     -0.55513737
H       1.66966153     -0.79499380      1.10813778
H       1.91804640      1.23183549     -1.20313531
