17
b3lypvtz=-191956.85171348
C      -2.48854600      0.52300075      0.20967422
N      -1.32406684     -0.33588736      0.36768703
C      -0.85806128     -1.02756270     -0.82815863
C      -0.08717329      0.11071738     -0.25527761
C       1.19992156     -0.08153058      0.51924194
C       2.40228994     -0.16965808     -0.38386778
N       3.43163820      0.56735594     -0.38755979
H      -2.52723107      1.02713546     -0.76721270
H      -3.39368237     -0.07519031      0.32258517
H      -2.48401355      1.28449119      0.99071224
H      -1.39012604     -0.85221167     -1.75823742
H      -0.51938103     -2.04665490     -0.68234510
H      -0.14163902      1.03795069     -0.82193109
H       1.33482409      0.73372774      1.23584850
H       1.11265994     -1.00892144      1.09316498
H       2.36696387     -0.97033266     -1.12785306
H       3.36562289      1.28357055      0.34062483
