15
b3lypvtz=-214496.8261021
C      -2.09188573     -0.37811186      0.28875444
C      -0.80509292     -0.48536560     -0.40598500
O      -1.25326028     -1.52476250      0.46050731
C       0.40797967      0.30120492      0.05448849
C       1.66981344     -0.49569130     -0.21109884
N       2.40600010     -1.07532517      0.63716486
N       0.46402574      1.54358785     -0.71853816
H      -3.01472372     -0.55431092     -0.25382337
H      -2.17617590      0.26470930      1.16023688
H      -0.80829469     -0.73881063     -1.46280627
H       0.31761824      0.44208558      1.14128397
H       1.94871011     -0.56060697     -1.26579110
H       2.04338001     -0.94415732      1.58503215
H      -0.36845897      2.09997913     -0.56593261
H       1.26036489      2.10557551     -0.44349277
