15
b3lypvtz=-191187.70196204
C       1.92357101     -0.59639081     -1.12850642
C       0.86929476      0.00541675     -0.23770638
C      -0.33327698     -0.80352841      0.10837392
N      -0.38550357      0.36493085     -0.89346624
C      -1.16442657      1.15854820      0.12633619
C      -1.21136369     -0.06285177      1.04747137
N      -1.86092348     -0.45541470      2.05256510
H       1.47297760     -1.26006614     -1.86605772
H       2.46167203      0.18751815     -1.66396219
H       2.64472940     -1.16655798     -0.54052385
H       1.24465519      0.69174399      0.51756445
H      -0.43522952     -1.83990440     -0.18447231
H      -0.64939733      2.05359153      0.48088135
H      -2.14622088      1.42729229     -0.26202211
H      -2.43055796      0.29567248      2.44352483
