18
b3lypvtz=-181893.11734003
C      -2.11491893     -0.89244625     -0.43925224
N      -1.65006031      0.11963885      0.15159315
C      -0.22473789      0.38258586      0.15222326
C       0.05205568      1.73489197     -0.47092780
C       0.52665714     -0.01084234      1.39439680
C       0.79154751     -0.73810660      0.09147282
C       2.11783455     -0.63623589     -0.62679320
H      -1.50400763     -1.63090471     -0.96894261
H      -3.19056201     -1.05628214     -0.43300120
H      -0.17512554      1.72763093     -1.53924036
H       1.09150630      2.03269501     -0.34524263
H      -0.58011090      2.48788717      0.00120649
H       1.27889377      0.67644164      1.76161494
H      -0.01982798     -0.53624076      2.16640397
H       0.36756532     -1.73438537      0.05607883
H       2.01240411     -0.85286966     -1.69234588
H       2.56090143      0.35499452     -0.53399922
H       2.83301239     -1.35149625     -0.21367411
