20
b3lypvtz=-182680.63941425
N      -2.79104129      0.32518168     -0.06522041
C      -1.68395960     -0.58877641      0.22587593
C      -0.30328337     -0.20275964     -0.31276496
C       0.28746794      1.09652350      0.25582481
C       1.77065092      1.01568574     -0.12510876
C       2.13599744     -0.47805888      0.04326072
C       0.79031163     -1.25171287     -0.01194432
H      -2.89951204      0.44322839     -1.06636514
H      -2.60400059      1.24484875      0.31627288
H      -1.95934534     -1.57355073     -0.16179733
H      -1.62072462     -0.69808225      1.31342102
H      -0.38561846     -0.08577480     -1.40090227
H       0.17784905      1.09944786      1.34657434
H      -0.19847170      1.99647284     -0.12389922
H       2.40196780      1.67393141      0.47267625
H       1.89349920      1.31729900     -1.16829899
H       2.63342854     -0.64658585      0.99934781
H       2.82946473     -0.80877075     -0.73022495
H       0.58566550     -1.72289986      0.95308977
H       0.79905124     -2.05150612     -0.75312619
