13
b3lypvtz=-237052.62755977
O       3.51715329      1.12447583      0.67802426
C       2.41018747      0.39440998      0.84464851
N       1.35418297      0.62006016      0.17415586
N       0.32095952     -0.26075414      0.51552136
C      -0.74116490     -0.08477775     -0.16236503
C      -1.94740477     -0.93494064      0.08635523
O      -3.09274222     -0.14140171      0.39598867
H       3.33030894      1.78920643     -0.00245471
H       2.51404581     -0.38675737      1.59163492
H      -0.80984152      0.70034302     -0.91715571
H      -1.72355053     -1.66304517      0.87038697
H      -2.21205296     -1.47961590     -0.82260278
H      -2.91998109      0.32289725      1.22146244
