19
b3lypvtz=-192723.75159246
C      -0.59327342      2.11093376      0.07320912
C      -0.36127903      0.60528798      0.23499197
C      -1.55485291     -0.20526300     -0.29931061
N      -1.54724186     -1.57127254      0.24567616
C       0.94244975      0.20275491     -0.43321489
C       2.16006763     -0.07197941      0.36766986
N       1.46983516     -1.16181393     -0.33427189
H       0.25554913      2.68136592      0.45284526
H      -1.48603235      2.43482329      0.61102651
H      -0.72546148      2.37592146     -0.97885911
H      -0.28017332      0.38355506      1.30572198
H      -1.48288285     -0.27504213     -1.38744315
H      -2.48578154      0.33481764     -0.08001030
H      -1.93134361     -1.57841338      1.18347931
H      -2.12643857     -2.18731552     -0.31083729
H       1.07558203      0.63840780     -1.42107269
H       2.07279898     -0.00488315      1.44701676
H       3.14104006      0.17528530     -0.01994986
H       0.87603922     -1.69829107      0.29026985
