17
b3lypvtz=-194357.92401335
C       1.99304842     -0.42492996     -0.51430376
C       0.82383904     -0.44001947      0.45789741
C       0.14122457      0.91838580      0.84949313
C      -1.19562278      0.35056870      0.37011555
C      -0.54037929     -0.95690645     -0.02311207
C      -1.13580919     -0.03978725     -1.07202401
O      -2.39607663      0.51067156      1.05426373
H       2.85953191      0.07504057     -0.07584336
H       1.74485313      0.09755940     -1.44007626
H       2.29449486     -1.44109260     -0.77818778
H       1.11585963     -0.96963763      1.36579466
H       0.49773394      1.81667561      0.33919312
H       0.15138164      1.08946540      1.92464097
H      -0.91110083     -1.96467551      0.10192865
H      -2.07634231     -0.39244690     -1.47494836
H      -0.51148790      0.49286489     -1.78131879
H      -2.85514820      1.27826382      0.69648717
