19
b3lypvtz=-195127.58056654
C       2.65681594      0.13044661      0.17267319
O       1.58642312     -0.73603278     -0.15840208
C       0.34797899     -0.27655077      0.29746379
C      -0.43417150      0.72885023     -0.50932523
C      -1.21319727      1.84653015      0.14389486
C      -0.86266980     -0.73198171     -0.44479303
C      -2.10752561     -1.20373581      0.26937643
H       2.76037128      0.24260021      1.25880505
H       2.52211351      1.12424800     -0.26877532
H       3.56654113     -0.31665485     -0.22436736
H       0.27541294     -0.20115870      1.38267226
H       0.03659609      0.99822985     -1.44806339
H      -2.06863518      2.14709012     -0.46593215
H      -1.59578160      1.56041266      1.12406617
H      -0.58300897      2.72744563      0.28537996
H      -0.62515569     -1.29046650     -1.34266087
H      -2.99384524     -1.08170033     -0.35741638
H      -2.28294822     -0.65693710      1.19601619
H      -2.02574493     -2.26240991      0.52503690
