13
b3lypvtz=-237031.56250599
C      -1.06193760     -1.29872535      1.07824890
C      -0.77100146     -0.20112761      0.37848507
N      -1.69066033      0.17372999     -0.63653565
N      -1.39682496      1.21398792     -1.25544639
O       0.30020025      0.58881372      0.67176944
C       1.39050335      0.60005173     -0.25755676
O       2.17076701     -0.55450807     -0.17211056
H      -0.41321790     -1.64048626      1.86957542
H      -1.96830113     -1.84058270      0.85872010
H      -2.14802236      1.36175621     -1.94227978
H       1.94634551      1.50162886      0.00334711
H       1.02565407      0.65966886     -1.27824351
H       2.61649555     -0.56420731      0.68182662
