13
b3lypvtz=-234647.18020111
N      -2.79809838     -0.12680053      0.03964553
C      -1.57304942      0.15091408      0.21429160
N      -0.48875290     -0.62583690     -0.18111650
C       0.86727991     -0.38158850      0.00457721
N       1.63025017     -1.55239550     -0.00485511
N       1.48370014      0.73601217      0.10903802
O       0.64318698      1.85226709     -0.14467400
H      -2.92894100     -1.00839129     -0.46053286
H      -1.29162513      1.06481364      0.72080886
H      -0.69730087     -1.50423598     -0.63342789
H       1.35540815     -2.22047830      0.70391363
H       2.61743372     -1.34478121      0.05056648
H       1.26704263      2.58184922     -0.09456295
