15
b3lypvtz=-191212.84743383
C       2.09938209      0.03371427      0.32182786
C       0.61628661     -0.23262829      0.39095477
C      -0.32613655      0.79832110     -0.17908094
C      -0.12670581     -0.54686079     -0.88520114
N      -1.36913823     -1.28043950     -0.77577239
C      -2.16333173     -0.53641561     -0.10284605
N      -1.71384083      0.73352561      0.20354285
H       2.36203838      0.57498749     -0.58959282
H       2.43502606      0.63587494      1.16947359
H       2.66883478     -0.89812431      0.32465171
H       0.27344903     -0.76445378      1.27232127
H       0.04178497      1.74964390     -0.54003996
H       0.43062148     -0.66500565     -1.80432985
H      -3.16201817     -0.83551533      0.19080527
H      -2.06625209      1.23337596      1.00328583
