17
b3lypvtz=-194355.4582588
C      -1.63322524      1.36933026     -0.11723626
C      -0.90105884      0.20218486      0.52126739
C      -1.20634069     -1.21163374     -0.01808585
O       0.18036056     -1.42551577     -0.38414132
C       0.52249693     -0.10432536      0.05218580
C       1.83896443      0.18839100      0.67743619
C       1.49399803      0.73559003     -0.70244192
H      -1.21756495      2.32510811      0.20857515
H      -1.56577597      1.32794419     -1.20567412
H      -2.69037980      1.36186397      0.15687099
H      -0.97238643      0.25737526      1.60849676
H      -1.54649670     -1.94707462      0.71339367
H      -1.85981029     -1.23769584     -0.89440880
H       2.55016472     -0.62531484      0.72514726
H       1.87643662      0.87700197      1.51206420
H       1.97852263      0.27575568     -1.55323361
H       1.30193299      1.79579183     -0.80525552
