16
b3lypvtz=-204446.3708143
C      -2.06994672      0.74224994      0.10731290
C      -0.58908618      0.93268673      0.21637690
C       0.04379515     -0.19335132     -0.08912881
C      -0.97028120     -1.24946538     -0.43734705
O      -2.24365774     -0.62389420     -0.28639155
C       1.51243986     -0.47009476     -0.11790471
N       2.30960386      0.74216832      0.06498292
H      -2.58957610      0.91731157      1.05789584
H      -2.52836648      1.40185613     -0.64092749
H      -0.12138116      1.85830362      0.51587588
H      -0.90659642     -2.12374498      0.22480867
H      -0.85280422     -1.61338497     -1.46745388
H       1.74353970     -1.01898333     -1.04546397
H       1.75653422     -1.15975561      0.69787993
H       3.29171256      0.51009703      0.14483777
H       2.21407085      1.34800124     -0.74200671
