16
b3lypvtz=-181142.96988695
C      -2.18956510      0.01800520     -0.87800085
C      -0.80636724      0.35238121     -0.37595910
C       0.36594629     -0.48375898     -0.82009627
C      -0.13059198     -0.55424410      0.61923906
N       0.85633228      0.06372693      1.47768394
C       1.83290830      0.45126545      0.76206159
C       1.74598456      0.14244217     -0.72061393
H      -2.95729611      0.38171541     -0.19207355
H      -2.37232050      0.46879048     -1.85615931
H      -2.32214719     -1.06058066     -0.98263986
H      -0.61445486      1.41076853     -0.22783520
H       0.18941297     -1.28634385     -1.52248673
H      -0.67402861     -1.38971851      1.03806331
H       2.66955647      0.98339851      1.20593555
H       1.86366531      1.04646421     -1.32532073
H       2.54296539     -0.54431197     -1.02264959
