15
b3lypvtz=-237839.49451411
C       1.85034962      1.16897821     -0.10766263
N       0.41457127      0.98132609     -0.18738625
C      -0.09704748     -0.10661463      0.23394064
N       0.53658065     -1.16778192      0.81899032
C      -1.62086432     -0.25602284      0.12168427
O      -1.95358620     -1.50853118     -0.46124849
O      -2.14383819      0.80212080     -0.60228025
H       2.11967041      2.11464242     -0.57397568
H       2.40525957      0.37412773     -0.62487145
H       2.19995664      1.19659610      0.93127474
H       0.04479959     -2.04668352      0.78277140
H       1.53839937     -1.22861114      0.75285211
H      -2.05715642     -0.30046094      1.12537998
H      -1.86281012     -1.39934986     -1.41610452
H      -1.37418439      1.37626468     -0.79346417
