12
b3lypvtz=-249544.42992912
N      -1.77067124      0.66041800      1.26171354
C      -0.91810749      0.86425913      0.35857953
C      -0.36983197     -0.17700188     -0.60123997
O      -0.58982288     -1.44955474     -0.09661789
O       1.02516053      0.04447252     -0.93926595
C       1.92608660      0.17682212      0.06091000
O       1.69528761      0.18609583      1.23232727
H      -1.99000018     -0.33631537      1.32444205
H      -0.56893256      1.87962061      0.16703657
H      -0.85112070     -0.03712868     -1.57367561
H      -0.51084054     -2.09470690     -0.80624435
H       2.92279284      0.28311937     -0.38786518
