16
b3lypvtz=-204463.58211278
C       1.48528059      1.33494512      0.12043226
C       1.39107109     -0.17042234     -0.01616563
O       2.36477327     -0.86971006     -0.23103906
N       0.14058988     -0.72445497      0.10693473
C      -1.06045348     -0.06286385      0.51950612
C      -1.83463310      0.77729655     -0.46460475
C      -2.36019027     -0.56551671     -0.03941201
H       2.52253918      1.62364466     -0.01951370
H       0.86021974      1.83891264     -0.61727705
H       1.14837672      1.66036762      1.10658367
H       0.14835586     -1.73382068      0.10684075
H      -1.08325158      0.26792164      1.55316300
H      -2.32461455      1.66713114     -0.09510693
H      -1.43339552      0.85752352     -1.46456197
H      -3.21348927     -0.60654266      0.62210771
H      -2.30795557     -1.36933461     -0.76069514
