17
b3lypvtz=-191954.69084069
N      -2.97518211     -0.07393214      0.50962934
C      -1.91742530      0.27869943     -0.44771303
C      -0.74537964     -0.64322583     -0.29201975
C       0.51305673     -0.25466750     -0.16570878
C       1.83556463     -0.96459470      0.04199510
N       2.44271969      0.34796229      0.41196331
C       1.23614852      1.07685180     -0.07579711
H      -2.65725556      0.09618508      1.45687668
H      -3.79363013      0.50504921      0.36330836
H      -2.34075376      0.15706607     -1.45042883
H      -1.57748845      1.32088544     -0.37527567
H      -0.98191651     -1.70324155     -0.27442994
H       2.23681967     -1.40680829     -0.87789952
H       1.87766712     -1.71505312      0.83481797
H       3.29093271      0.56842127     -0.09344005
H       0.84409370      1.81233474      0.63136586
H       1.36389370      1.56743280     -1.04840496
