17
b3lypvtz=-191992.09248866
N      -1.42407029      1.57076650      0.03529654
C      -0.34462785      0.69166422     -0.00986165
C      -0.41521806     -0.64654326     -0.02583560
N      -1.65207640     -1.35352248     -0.05650298
C       0.94784217     -1.28217252      0.09175103
C       1.90563414     -0.09344383     -0.15730266
C       1.07072990      1.17761713      0.12854061
H      -1.26713483      2.44280612     -0.44952464
H      -2.28322610      1.12941571     -0.26832691
H      -1.55753390     -2.26071725     -0.49486423
H      -2.03582446     -1.50482283      0.87108093
H       1.10235630     -2.09096741     -0.63028833
H       1.09937996     -1.72651702      1.08522099
H       2.21787106     -0.09265528     -1.20230704
H       2.80864130     -0.14456872      0.45030706
H       1.30434134      1.99381755     -0.56236926
H       1.24577471      1.56715139      1.13802914
