16
b3lypvtz=-204445.79027392
C       3.33565414     -0.46216229     -0.29248150
C       2.33532510      0.15616614      0.31967200
C       0.91053279     -0.28018613      0.24213275
O       0.11616091      0.86347092     -0.13962485
C      -1.21415223      0.68065661     -0.17919463
N      -1.79139938     -0.40600701      0.08180336
C      -3.23763085     -0.44460853     -0.00339526
H       3.16641246     -1.32366445     -0.92784399
H       4.36046709     -0.13564511     -0.17599061
H       2.52934319      1.02143877      0.94536753
H       0.54788579     -0.64222862      1.20790721
H       0.76811200     -1.08223722     -0.48352995
H      -1.71095194      1.61032153     -0.47066817
H      -3.65372941     -0.73841325      0.96238611
H      -3.54163910     -1.20441085     -0.72622224
H      -3.68908956      0.51258350     -0.29733876
