18
b3lypvtz=-181907.65721772
C       3.20687226     -0.49421267      0.14536853
C       2.05961441      0.18933521      0.10587694
C       0.76584431     -0.41470794     -0.15460283
C      -0.42730510      0.19996828     -0.21816541
C      -0.65667493      1.67026315     -0.01579514
C      -1.66687586     -0.60786007     -0.52240749
N      -2.62446880     -0.54845880      0.59282190
H       4.15144086     -0.00599766      0.34174217
H       3.23395654     -1.56504531     -0.01916371
H       2.09156636      1.25964196      0.27442998
H       0.78573883     -1.48855783     -0.32312458
H      -1.47983161      1.82041408      0.68378158
H       0.21899773      2.19590218      0.35666804
H      -0.95534261      2.14036670     -0.95873130
H      -2.16768837     -0.17435245     -1.39475646
H      -1.37273429     -1.62828620     -0.79739159
H      -2.27424261     -1.08293627      1.37956120
H      -3.50925212     -0.96109937      0.32348116
