14
b3lypvtz=-203704.20514368
C      -2.44447944     -0.48623490      0.01971087
N      -1.06063440     -0.06700241     -0.02448799
C      -0.61689442      1.22178057     -0.00823363
C       0.76209298      1.21475473      0.00673866
C       1.15864621     -0.14619397      0.00375250
O       2.42910261     -0.65611238      0.00742223
C       0.02290484     -0.92180260     -0.01249624
H      -2.70207335     -0.91055841      0.99290899
H      -2.64172133     -1.23351540     -0.74999997
H      -3.08386227      0.37451975     -0.16478890
H      -1.30924694      2.04603505     -0.00933484
H       1.40336288      2.08107537      0.00840842
H       3.05437434      0.07337762      0.02337744
H      -0.09374669     -1.99056003     -0.02047556
