15
b3lypvtz=-214523.96053419
N       2.32035654      1.81885580      0.32160672
C       1.46686546      1.05351150     -0.21528801
O       1.49626836      0.68943147     -1.52741093
N       0.39624918      0.55036286      0.51130252
C      -0.22480214     -0.69982082      0.18861916
C      -1.33450075     -0.71856209     -0.84716079
C      -1.64864785     -0.89022086      0.61288695
H       2.98272698      2.15687671     -0.36942506
H       0.72054469      0.15427569     -1.73842829
H       0.50161122      0.75105618      1.49448124
H       0.40849585     -1.58281333      0.22386515
H      -1.60819596      0.22540492     -1.29778423
H      -1.41150406     -1.58042802     -1.49515084
H      -1.94264442     -1.86812706      0.96521880
H      -2.12282310     -0.05990295      1.11606759
