12
b3lypvtz=-202857.34311924307
C      -1.78272472     -1.19040533     -0.21981057
C      -0.94300513      0.05008775     -0.23356653
C       0.34433717      0.12755811      0.06210190
C       1.56010848      0.32574972      0.31726541
C       2.83370330      0.50239759      0.58974718
N      -1.68921040      1.25385606     -0.62529489
O      -1.07057268      2.28765694     -0.64882003
H      -1.39613860     -1.94173653     -0.91003604
H      -2.79929499     -0.93393606     -0.51680178
H      -1.81274679     -1.64054947      0.77355498
H       3.46812804     -0.32479961      0.88486367
H       3.28741632      1.48412081      0.52679669
