14
b3lypvtz=-203710.49627756
C      -2.50599033     -0.31976131     -0.50067479
C      -1.59988193      0.40840425      0.50002270
C      -0.14585903      0.20815547      0.22641270
C       0.81258686      1.10704418     -0.09321936
O       2.00081900      0.43871729     -0.25377862
C       1.68193781     -0.85362064     -0.01691924
N       0.44339143     -1.05691618      0.26892516
H      -2.28522627     -1.38680984     -0.51036121
H      -3.55628562     -0.18934983     -0.23620129
H      -2.36004033      0.06374369     -1.51177735
H      -1.81667138      0.04732546      1.50915953
H      -1.81814048      1.47835555      0.49570869
H       0.83366078      2.17168132     -0.23547653
H       2.48014549     -1.57319840     -0.08745438
