14
b3lypvtz=-203674.25869731
C      -1.19545892      0.81434631      0.06128957
C      -1.12318757     -0.76018411      0.06642338
N       0.35031741     -1.03192743     -0.05146120
C       0.71814622      0.01188855     -1.09909526
C       0.31849484      1.08597286     -0.04885708
C       0.82478630      0.00969953      0.90915219
O       1.41914588     -0.08061226      1.93111064
H      -1.74437175      1.21435832     -0.79061950
H      -1.63069259      1.22083646      0.97307017
H      -1.50216383     -1.20241990      0.98518370
H      -1.63701124     -1.21417762     -0.77792085
H       1.77989208     -0.03573366     -1.32599218
H       0.11902539     -0.04393493     -2.00625800
H       0.67547777      2.11138786     -0.04002556
