19
b3lypvtz=-218449.34079586
C      -2.02264753      0.32067235      1.28939850
C      -1.60011067     -0.30049470     -0.03760934
O      -2.39069936     -1.45824776     -0.33049763
C      -0.10832267     -0.63879098     -0.11647821
C       0.82566777      0.57126420     -0.05749854
C       2.27953848      0.19642939     -0.28661018
O       3.06364925      1.38322385     -0.18492563
H      -1.77929455     -0.34583206      2.12257588
H      -3.09875933      0.49320747      1.29366311
H      -1.52221523      1.27334529      1.46749003
H      -1.84131232      0.39388386     -0.84666172
H      -2.25530815     -2.10181062      0.37349033
H       0.13629171     -1.33609956      0.69451013
H       0.04839263     -1.18210805     -1.05206279
H       0.75331648      1.07211031      0.91009434
H       0.53573499      1.30569789     -0.81443308
H       2.39460584     -0.26253905     -1.27659583
H       2.59611449     -0.54332755      0.46010981
H       3.98555815      1.15941574     -0.33905918
