18
b3lypvtz=-205209.53645343
C       1.71743357      1.64488466     -0.09825200
C       0.88880004      0.59803049      0.04116454
C       1.43573662     -0.74814775      0.45266378
O       1.10673172     -1.80461409     -0.44896961
N      -0.46994688      0.65850343     -0.23691937
C      -1.45514090     -0.15503473      0.46968237
C      -2.83236656      0.02564188     -0.15334443
H       1.35423562      2.63319751     -0.35091740
H       2.78292141      1.52453131      0.02236230
H       2.51762216     -0.65829491      0.57808539
H       1.02054200     -1.05390091      1.41521526
H       1.33139044     -1.51455093     -1.33911865
H      -0.79272300      1.59547871     -0.43083471
H      -1.15175140     -1.19798820      0.39124537
H      -1.50162000      0.09630357      1.53916142
H      -3.16281838      1.06567430     -0.09043976
H      -2.82185165     -0.26379169     -1.20473769
H      -3.57052382     -0.58569664      0.36655517
