17
b3lypvtz=-217674.32133962
C      -2.14277535     -0.72721017     -0.25047374
C      -0.65831549     -0.59974130     -0.49656096
C       0.36040937     -0.74809503      0.61423535
O       1.55060477     -1.44640974      0.40942228
C       0.16819145      0.59149704     -0.03720433
C      -0.41734676      1.77095421      0.69373748
O       1.27542211      0.93073047     -0.85662151
H      -2.45700976     -1.76843229     -0.34750918
H      -2.41803652     -0.39827344      0.75225690
H      -2.72618389     -0.13711367     -0.96138262
H      -0.31198935     -1.01407614     -1.43812181
H      -0.01921631     -0.87961534      1.62152319
H       2.08977456     -0.90003808     -0.17850384
H       0.36877856      2.29504423      1.23939753
H      -1.17986643      1.46247316      1.40830986
H      -0.87753877      2.47812618     -0.00211079
H       0.95269082      1.22576991     -1.71403281
