16
b3lypvtz=-181169.93301523
C       1.60612463     -1.38267721     -0.00000324
C       0.27847899     -0.70300427      0.00000239
C      -0.99295417     -1.23315272      0.00000550
C      -1.91619443     -0.15524027     -0.00001328
C      -1.18179689      1.00338331      0.00000858
N       0.15263197      0.66997856      0.00000633
C       1.24704298      1.61741303     -0.00001029
H       2.20463730     -1.13019139      0.88051544
H       2.20462274     -1.13020929     -0.88053724
H       1.46245672     -2.46184839      0.00000912
H      -1.22705497     -2.28507655     -0.00000755
H      -2.99102830     -0.22139629     -0.00000504
H      -1.48912940      2.03513293     -0.00000409
H       0.84024349      2.62591241      0.00003789
H       1.87429482      1.49961270     -0.88577311
H       1.87436351      1.49955743      0.88569560
