10
b3lypvtz=-248782.77432252
N       2.47239638     -0.33885196     -1.55334257
C       1.56640979     -0.12204347     -0.86706436
C       0.51502253      0.19361190      0.01027556
O       0.72451919      1.09993862      1.05963279
C      -0.73091260     -0.31658574     -0.06724613
O      -1.69842646      0.02272346      0.80133790
O      -1.11171852     -1.19253193     -1.00010157
H       1.63407524      1.40953779      1.03804214
H      -1.33101552      0.65713765      1.43490334
H      -2.04035003     -1.41283632     -0.85643709
