13
b3lypvtz=-237018.52718266548
C      -2.27198372      0.20585717      0.15060762
N      -1.00805272     -0.45826378      0.40601490
C       0.19707710      0.09313247      0.18395764
C       1.39620235     -0.48795552      0.40604299
N       2.59364017      0.23041001      0.11885008
O       2.52524269      1.37706667     -0.33003315
O       3.65213248     -0.35657406      0.34370817
H      -2.86599434     -0.34140734     -0.58440277
H      -2.07654420      1.20133402     -0.24207150
H      -2.85841020      0.30819958      1.06614503
H      -1.04474593     -1.39485300      0.77410931
H       0.19600284      1.10112659     -0.21134894
H       1.56543348     -1.47807280      0.79322966
