16
b3lypvtz=-204432.19018579
O       3.25969249      0.60357909     -0.31941297
C       2.15304474      0.12940766     -0.35234893
C       1.29815557     -0.11514924      0.88262407
N      -0.13362023     -0.08478340      0.70211894
C      -0.82251364      1.04434019      0.04682653
C      -1.88030566      0.04098105     -0.46929793
C      -0.86172108     -1.07045346     -0.12005993
H       1.69946429     -0.16738559     -1.32152546
H       1.60159354      0.60953842      1.64281926
H       1.57748889     -1.10195524      1.27192022
H      -0.25537212      1.51040186     -0.77006032
H      -1.15394864      1.82936264      0.72944250
H      -2.17292506      0.12872601     -1.51216755
H      -2.76838654      0.00787926      0.15735021
H      -1.22466676     -1.93828381      0.43507591
H      -0.31597978     -1.42610544     -1.00320456
