17
b3lypvtz=-191977.4998939
C      -2.68842868      0.30642176     -0.10777992
C      -1.50634316      0.36581462      0.49825439
C      -0.30530247     -0.41274136      0.10043065
N      -0.32042676     -1.57063190     -0.42779098
C       1.04364892      0.26082105      0.37066165
C       1.21971693      1.48295988     -0.53971974
N       2.20491425     -0.60806661      0.24422204
H      -2.85658773     -0.32656685     -0.97111377
H      -3.52693119      0.90034141      0.22975831
H      -1.37364346      1.05195356      1.32937744
H      -1.27518514     -1.91550030     -0.53213852
H       1.01259988      0.61767602      1.40718368
H       1.26192391      1.16848185     -1.58504099
H       2.15320050      1.98789219     -0.29598246
H       0.39690891      2.19060329     -0.43656036
H       2.22428352     -0.98981359     -0.69658198
H       2.08410778     -1.41820400      0.84285655
