14
b3lypvtz=-229613.12089474
C       0.88370605      1.90170733      0.00505634
C       0.05780227      0.63921900      0.00720268
C      -1.29796874      0.72580082      0.01246780
N      -2.23980201     -0.25185434     -0.03498278
C       0.80026919     -0.60889475      0.00094717
N       2.03429220     -0.84800014     -0.01365731
F      -0.00635691     -1.72068682      0.01880002
H       1.54067128      1.95908670      0.87783197
H       1.51887734      1.97084689     -0.88305909
H       0.24470380      2.78405053      0.01773526
H      -1.72482316      1.72234300      0.02533226
H      -3.19312171     -0.01296732      0.16202905
H      -1.96872096     -1.21357091      0.06414403
H       2.57551336      0.00989600     -0.02627742
