14
b3lypvtz=-203680.95801356
C      -0.79129032     -0.93685022      0.30531177
C      -0.25687878     -0.30228086     -1.01183296
C      -0.55711792      1.07714025     -0.35589906
C      -0.26386552      0.35089571      0.97515745
O       1.17110782      0.23989809      1.14542761
C       1.78296274     -0.20233645      0.01561732
N       1.19860242     -0.49020588     -1.06822111
H      -1.87870871     -0.97523815      0.33405741
H      -0.36457059     -1.88813787      0.61823891
H      -0.70931190     -0.56226327     -1.96394601
H      -1.60840349      1.34945138     -0.42926657
H       0.07772345      1.91748490     -0.63112146
H      -0.65644618      0.70750562      1.92224596
H       2.85619699     -0.28506327      0.14423076
