10
b3lypvtz=-251347.96840575
C       2.02032203     -0.33897534     -0.34512375
C       0.86812859      0.31370269     -0.27206706
F       0.83090487      1.61985979      0.03874713
C      -0.45143743     -0.32963536     -0.52216687
O      -0.57167721     -1.48621800     -0.80740976
N      -1.59415304      0.62421912     -0.37815804
N      -2.66863132      0.05340870     -0.58971587
H       2.01364905     -1.38752286     -0.59733525
H       2.95716309      0.16357572     -0.15638277
H      -3.40436861      0.76748553     -0.47398775
