16
b3lypvtz=-204436.44142442
C      -1.88119474      0.69769178     -0.17491932
C      -0.62636338     -0.07750441      0.18104191
C      -0.38891813     -1.43023054     -0.51886022
O       0.88329226     -0.98933025     -1.05607932
C       0.70415659      0.33373223     -0.51219200
C       1.83858967      0.76497071      0.37240296
N       2.86898480      0.08869549      0.65015226
H      -1.85098472      1.70925346      0.23482491
H      -2.77048969      0.20742316      0.22661211
H      -2.00182327      0.77667706     -1.25735402
H      -0.51368520     -0.14580147      1.26311314
H      -0.27382539     -2.30217089      0.12724088
H      -1.09866049     -1.66051243     -1.31810689
H       0.55991332      1.07575698     -1.30822731
H       1.73197788      1.76367499      0.80654534
H       2.81913050     -0.81222587      0.16420557
