14
b3lypvtz=-203698.42024679
N      -3.16977690      0.82376119     -1.36811365
C      -2.36661520      0.04403526     -1.10117867
C      -1.33870296     -0.92886025     -0.74181647
C      -0.33138402     -0.38845177      0.30058110
C       0.43963674      0.80417717     -0.17812886
C       1.75693601      0.83730284     -0.34914573
O       2.56192791     -0.24206509     -0.09574242
H      -1.83669401     -1.81962329     -0.35250261
H      -0.81219916     -1.22325308     -1.65162402
H      -0.88265051     -0.13759802      1.21074295
H       0.35183978     -1.19872590      0.55104014
H      -0.10978496      1.70778055     -0.40754175
H       2.26024280      1.73170506     -0.69756138
H       3.47722448     -0.01018467     -0.26910863
