20
b3lypvtz=-205966.88235634
C       1.89291702      1.49759608     -0.06103864
C       0.39409290      1.24072494     -0.23461820
C      -0.14969871     -0.01675992      0.47860913
C       0.24103600     -1.33621183     -0.19301714
O       1.63834634     -1.56430957     -0.00221259
N      -1.60749198     -0.01266019      0.68759220
C      -2.45062865      0.14786757     -0.49363058
H       2.17811491      2.43717657     -0.53819417
H       2.48973345      0.69640496     -0.49053942
H       2.15643932      1.57016482      0.99668456
H       0.15523537      1.18985805     -1.30092561
H      -0.15709375      2.10156489      0.15795069
H       0.28879581     -0.05192377      1.48065543
H      -0.35054534     -2.13382480      0.26627178
H       0.00411540     -1.30559005     -1.26366694
H       1.87149076     -2.39486411     -0.42530953
H      -1.83643413      0.70652116      1.36105048
H      -3.49424930      0.16186935     -0.17785841
H      -2.26495491      1.05852042     -1.07972332
H      -2.33122650     -0.70637657     -1.16151874
