11
b3lypvtz=-189694.31014328
C      -2.94142009     -0.00714664      0.00004658
C      -1.73988251     -0.00930915      0.00004605
C      -0.32272441      0.00120916      0.00005375
C       0.50076909      1.10384141      0.00001401
N       1.77657852      0.60524319      0.00001868
H       2.62384733      1.14637618      0.00003274
C       1.68175679     -0.75654216     -0.00000440
N       0.43819744     -1.15584721     -0.00002102
H      -4.00242022     -0.01212677      0.00008000
H       0.28542431      2.15662369     -0.00000539
H       2.54934876     -1.39563570     -0.00000100
