14
b3lypvtz=-201300.08130917
C      -1.37009729     -1.09035159     -0.14745288
C       0.13696624     -1.08883289     -0.07639341
C       0.81181472      0.05095102      0.07941160
N       0.11681147      1.26740258      0.21638698
C      -1.24448455      1.25705073     -0.09646711
N      -1.97511513      0.24069886     -0.26504773
N       2.20342454      0.22278144      0.07048924
H      -1.72268615     -1.68803665     -0.99530906
H      -1.80567090     -1.57086901      0.73892366
H       0.67044224     -2.02838855     -0.14041769
H       0.62615340      2.08495365     -0.08601436
H      -1.67945059      2.25057362     -0.18040142
H       2.53553768      0.74858801      0.87048229
H       2.69635432     -0.65652123      0.01180989
