12
b3lypvtz=-200505.85505551
C       2.34240383      0.01450379      0.00019261
C       1.00100856      0.05613544     -0.00000507
C       0.17346025      1.24298038     -0.00009111
C      -1.16140450      1.11513358     -0.00010118
N      -1.82760107     -0.11746052     -0.00000836
N      -1.13829964     -1.17493922     -0.00003725
N       0.20158513     -1.10047800     -0.00019589
H       2.91008541      0.93173295      0.00025006
H       2.88765686     -0.91854582      0.00024382
H       0.65060340      2.21299325     -0.00009729
H      -1.82507189      1.96761628     -0.00014658
H       0.63474864     -2.00973911     -0.00005675
