14
b3lypvtz=-224623.92731095
C       2.14170584     -1.26150608      0.00002591
N       1.76776480      0.13834014      0.00005248
C       0.50625734      0.66623355     -0.00001383
O       0.29538936      1.86393626      0.00001608
N      -0.52271644     -0.27928578     -0.00002210
C      -1.86693513      0.07652128     -0.00001718
N      -2.86491726     -0.70508826     -0.00000502
H       1.78155035     -1.78576279     -0.89015479
H       1.78142876     -1.78582371      0.89012168
H       3.22702682     -1.32962513      0.00009985
H       2.48862188      0.83867739      0.00008869
H      -0.30098206     -1.26157602     -0.00002083
H      -2.00731902      1.15215034     -0.00002582
H      -2.59015222     -1.68924020      0.00000087
