13
b3lypvtz=-239480.48071524
C       1.16895113     -0.07268995     -0.10165587
C       0.04507254     -1.08566911      0.05464305
O      -0.95911295     -0.43208069      0.82741125
C      -0.96452931      0.95327217      0.49556093
C       0.43919924      1.26237110     -0.01521228
O       0.86940529      2.34935799     -0.29106234
O      -0.41817900     -1.41245755     -1.23592960
H       1.87365764     -0.13940825      0.72992871
H       1.71720173     -0.17079120     -1.03509835
H       0.31054926     -1.98250559      0.61617522
H      -1.69450867      1.18470360     -0.28716787
H      -1.20412948      1.53635592      1.38439233
H      -1.18357743     -1.99045844     -1.14198516
