17
b3lypvtz=-191979.99201012
C      -1.45552574      1.53849733     -0.26382509
C      -0.49495624      0.63918429      0.02478810
C       0.89653946      1.05284957      0.22677649
C       2.01111218      0.30907077      0.10172195
N       2.12057586     -1.03840704     -0.20948074
N      -0.73673987     -0.74141378      0.12151817
C      -2.10032676     -1.23430127      0.06727433
H      -1.19432108      2.57748551     -0.39552561
H      -2.49104366      1.26852664     -0.39783497
H       1.03956251      2.09286660      0.48315612
H       2.96460194      0.78521711      0.29736957
H       3.00189491     -1.31312952     -0.61046784
H       1.32203201     -1.43641980     -0.68243979
H      -0.19527082     -1.16852185      0.85894113
H      -2.09220677     -2.31259916      0.22128631
H      -2.52878836     -1.03614796     -0.91617837
H      -2.75674957     -0.77666643      0.81850425
