16
b3lypvtz=-204445.98820923
C      -2.35927928      1.21593848     -0.07618034
C      -1.53437786      0.15894529      0.02067742
N      -2.00400241     -1.16374095      0.03807510
C      -0.08179402      0.33120353      0.04508865
C       0.79013850     -0.67160276     -0.12762943
O       2.14086296     -0.60888499     -0.11463337
C       2.74169090      0.65770138      0.11460415
H      -3.43471400      1.09811915     -0.07462138
H      -1.96725481      2.21436970     -0.19690596
H      -3.00773376     -1.22990800      0.11848616
H      -1.55242142     -1.74842680      0.72715864
H       0.26467430      1.34303454      0.19760834
H       0.46651264     -1.68400006     -0.32758929
H       2.46623014      1.37145163     -0.66647738
H       3.81569989      0.49270878      0.09455662
H       2.45000924      1.06068108      1.08845907
