17
b3lypvtz=-194377.62657464
O      -2.82336859      1.14744358     -1.61428925
C      -2.75514845      0.14174406     -0.95483134
C      -1.48015873     -0.47549846     -0.44562819
C      -0.20281456      0.26059263     -0.84115898
C       1.04159629     -0.38674952     -0.27837657
C       2.29186817      0.42044441     -0.06760547
C       1.50174548     -0.06663837      1.12015715
H      -3.67932462     -0.40755788     -0.67337891
H      -1.46684163     -1.51625714     -0.79400189
H      -1.57356784     -0.55197524      0.64508899
H      -0.26602767      1.29676527     -0.50036153
H      -0.14070370      0.31049559     -1.93106638
H       1.19700945     -1.41224195     -0.59645443
H       3.24663418     -0.04370490     -0.27212208
H       2.25281123      1.47639364     -0.30004907
H       1.92071210     -0.85958797      1.72408393
H       0.93557889      0.66613225      1.68069401
