13
b3lypvtz=-213756.07739807313
C      -1.75828875     -0.06159887     -0.36630622
C      -0.42141385     -0.73022078     -0.05832431
C       0.75235239      0.21473949      0.06438812
N       0.59423793      1.50449157     -0.08928669
N       0.48075068      2.62011378     -0.21796892
C       2.09742335     -0.23995216      0.35253443
O       2.37701008     -1.41056024      0.51674268
H      -2.54176861     -0.81504212     -0.43993849
H      -2.04991067      0.64128519      0.41604986
H      -1.73194316      0.47962239     -1.31361766
H      -0.48660340     -1.29788805      0.87296398
H      -0.17588607     -1.46174864     -0.83182997
H       2.86404006      0.55675843      0.41439412
