15
b3lypvtz=-191166.37717581
C      -1.57085966     -0.12519354     -0.36548024
N      -0.69204918     -1.27752888     -0.76715191
C       0.26132971     -1.18989512      0.09254862
C       1.53580171     -0.54346348     -0.35996452
C       0.84057055      0.90602603     -0.25212617
C      -0.52450117      0.65421636      0.51413830
N      -0.06716016     -0.47602259      1.34642388
H      -1.88691673      0.35277807     -1.29429856
H      -2.46914396     -0.36477808      0.21476153
H       2.37847687     -0.64812528      0.31593620
H       1.80327200     -0.78520826     -1.38335115
H       0.68900644      1.32896387     -1.24336159
H       1.45876302      1.57799275      0.33905757
H      -0.89089022      1.52274847      1.06179540
H      -0.86559921     -0.93251031      1.78097265
