16
b3lypvtz=-204462.67142711
C       3.06013255      0.36667291     -0.27209862
C       2.02732309     -0.53002984      0.40751050
N       0.70564962      0.06986606      0.33935774
C      -0.23213802     -0.58033497     -0.20280053
C      -1.62216353     -0.02299393     -0.31275162
C      -1.88880519      1.35051158      0.24414641
O      -2.47586778     -0.70107388     -0.84502268
H       3.04537885      1.36602395      0.16251198
H       2.85466801      0.45631630     -1.33942496
H       4.06035405     -0.05088679     -0.15105133
H       2.04261518     -1.53747499     -0.02937442
H       2.27850043     -0.62310067      1.46782605
H      -0.11706591     -1.58507210     -0.62831675
H      -1.65423060      1.37611820      1.30937820
H      -2.93144756      1.60969489      0.08036231
H      -1.23492819      2.08353028     -0.23047128
