20
b3lypvtz=-182666.31464681
C       1.82265417      1.44775563     -0.02421449
C       1.69430720      0.12315126     -0.00026088
C       2.89650197     -0.78302013      0.01984990
C       0.36806328     -0.59667538      0.01549845
C      -0.88935875      0.26249656     -0.01768889
N      -2.08365000     -0.57170715      0.05682203
C      -3.32424288      0.18925033      0.02716303
H       0.97222429      2.11496430     -0.03980086
H       2.80007764      1.91336910     -0.02926853
H       3.82760173     -0.21773657      0.01195230
H       2.89584813     -1.45359340     -0.84462562
H       2.89023412     -1.42086448      0.90852753
H       0.34863425     -1.29114310     -0.83513150
H       0.32380200     -1.23725806      0.90294819
H      -0.88132076      0.90538938     -0.91325031
H      -0.89991424      0.93369430      0.84559786
H      -2.07715871     -1.23905624     -0.70572519
H      -4.17426507     -0.49355106      0.02127012
H      -3.39869114      0.80108478      0.92881520
H      -3.41835924      0.86399291     -0.83899132
