16
b3lypvtz=-181110.18168863
C      -2.15761852     -0.71668771      0.39997124
C      -1.09486046      0.23827409     -0.10081344
C       0.08920633      0.61024050      0.82194722
C       0.98630580      0.44600204     -0.43613099
N      -0.11158583     -0.34494336     -1.05281113
C       2.27435839     -0.21820856     -0.31349600
C       3.34472478     -0.74919855     -0.20060840
H      -2.75407611     -0.25394185      1.19003654
H      -2.83663336     -1.00280731     -0.40630937
H      -1.69746152     -1.62418758      0.79246966
H      -1.56627793      1.14930079     -0.49320927
H       0.08272220      1.58818246      1.29621860
H       0.29254150     -0.16217664      1.56100771
H       1.13502180      1.41957754     -0.92013396
H      -0.27394613     -0.16393699     -2.03652621
H       4.28757904     -1.22595015     -0.10161218
