15
b3lypvtz=-191218.4292059
C       2.85145555      0.66195391      0.30459371
C       2.25652533     -0.39217335     -0.25225580
C       0.80437128     -0.58214796     -0.32612108
N      -0.03148844      0.24555154      0.16147664
C      -1.40266161     -0.06639280      0.09857949
C      -2.25702603      1.12337441     -0.25422050
N      -1.80655362     -1.23888270      0.38620494
H       3.92883111      0.74980638      0.33297971
H       2.26753066      1.46027630      0.74308245
H       2.85500268     -1.18175607     -0.69185531
H       0.45273289     -1.49004396     -0.82406993
H      -1.94815276      1.53987185     -1.21519199
H      -3.31090075      0.85507704     -0.30408043
H      -2.11924850      1.90957830      0.48961450
H      -2.82251878     -1.28966290      0.33808758
