16
b3lypvtz=-227725.65753149
C      -2.77056742     -0.57214152      0.00000263
O      -1.62688985      0.25586015      0.00000208
C      -0.42295242     -0.48136844     -0.00000350
C       0.75743654      0.45515975     -0.00000206
C       0.54822555      1.93756536     -0.00000229
N       1.95990644      0.03325522     -0.00000080
O       2.00829672     -1.38336844     -0.00000267
H      -2.80313094     -1.21302177     -0.88982970
H      -3.64224955      0.07948025      0.00000791
H      -2.80312514     -1.21302854      0.88983031
H      -0.36264892     -1.13820343     -0.87890454
H      -0.36264547     -1.13821128      0.87889130
H       1.51115544      2.44299619     -0.00000212
H      -0.02718188      2.24462366      0.87477458
H      -0.02718135      2.24462368     -0.87477953
H       2.95463025     -1.55375084     -0.00000061
