13
b3lypvtz=-190460.1967325
C       2.98605067     -0.54179068      0.02196633
C       1.68881340      0.18361974      0.14794732
C       0.49911681     -0.30731936     -0.20027687
C      -0.77237584      0.43553844     -0.06759985
N      -0.96768666      1.69493670     -0.04272465
C      -1.94962882     -0.41291640      0.04560177
N      -2.84608592     -1.13038283      0.12633829
H       3.47167640     -0.63681569      0.99675513
H       3.67789932      0.01656847     -0.61482427
H       2.85620785     -1.53755707     -0.39978538
H       1.74078174      1.18254080      0.57357989
H       0.41852211     -1.32270424     -0.57177853
H      -0.08659708      2.19620712     -0.16354619
