14
b3lypvtz=-224578.52893952
C      -0.99788171      0.98704545     -1.11643498
N      -0.37801886     -0.11422347     -0.38653095
C      -1.20343351     -1.15460180      0.03308545
N      -1.08481089     -1.91744267      1.03853870
N       0.53273551      0.35993484      0.60771676
C       1.73962359      0.08320028      0.33416391
O       2.74307937      0.45554038      1.13314640
H      -1.75272548      0.58024981     -1.78754438
H      -1.46828633      1.70834696     -0.44001759
H      -0.24714431      1.50366575     -1.71314147
H      -2.02010459     -1.32136826     -0.66861724
H      -0.29712323     -1.63717868      1.62204302
H       2.07321791     -0.46333010     -0.54404608
H       2.36087254      0.93016150      1.88763843
