16
b3lypvtz=-181153.52746402
C       2.06907645     -0.27259194     -0.70806154
C       0.81462688      0.08509549      0.06123679
C       0.62466203      1.56675914      0.30395713
C       0.32341105     -0.87674059      1.09715317
C      -0.41606589     -0.77421523     -0.22991834
C      -1.72775017     -0.19923382     -0.27599775
N      -2.78137937      0.26590516     -0.31838297
H       2.07877339      0.21222317     -1.68646068
H       2.15490972     -1.34890369     -0.86377865
H       2.95644061      0.05760222     -0.16313388
H       1.45622317      1.95887405      0.89350459
H      -0.29936832      1.77812780      0.84050596
H       0.59461269      2.11502791     -0.63986472
H      -0.18093585     -0.47903509      1.96657882
H       0.87550319     -1.79017948      1.27115894
H      -0.27876159     -1.59112609     -0.92632889
