22
b3lypvtz=-183433.76324517
C       2.43414164     -0.78282784      0.26344127
N       1.01300918     -0.57463596      0.51281476
C       0.31491993      0.22375472     -0.49906130
C       0.81831406      1.66891490     -0.48382462
C      -1.21797366      0.13902200     -0.30418978
C      -1.69835398      0.67418200      1.05000347
C      -1.74987009     -1.27984534     -0.54614412
H       2.99400053      0.13726741      0.43265256
H       2.81546836     -1.52628110      0.96388322
H       2.65976100     -1.12801799     -0.75886445
H       0.56480873     -1.47816971      0.58551601
H       0.51816301     -0.17634996     -1.50987776
H       1.86120987      1.73079029     -0.79498697
H       0.74206516      2.09988867      0.51471952
H       0.23644065      2.28162525     -1.17465863
H      -1.64377629      0.77535279     -1.08711923
H      -1.43166122      1.72148880      1.19207642
H      -1.26141164      0.10700904      1.87222106
H      -2.78508775      0.59915211      1.12407532
H      -1.45435062     -1.97052110      0.24797584
H      -2.84098641     -1.28153667     -0.57142729
H      -1.39416747     -1.68495532     -1.49607730
