9
b3lypvtz=-238145.91072856
C      -1.38867066     -0.68058697     -0.23793145
N      -0.31369262     -0.36995181     -0.78789125
C       0.78175987      0.18805542     -0.09542404
N       1.91047603     -0.35973859      0.06027890
C       0.58195404      1.54625885      0.37459083
N       0.38585806      2.62265354      0.73042508
F      -1.64135644     -0.54246705      1.06902895
H      -2.23152666     -1.10785372     -0.76792552
H       1.91519838     -1.29636966     -0.34515151
