11
b3lypvtz=-238651.71450781
C      -0.55566071     -0.37293996     -0.59284756
C       0.27392516     -0.66955525      0.69522171
C       1.46866387      0.02765898      0.01892453
O       2.64852579     -0.02421143     -0.08582979
C       0.25651595      0.92489376     -0.29145030
O      -0.07925380      0.71482700      1.15659431
O      -1.93637530     -0.31001970     -0.46703034
H      -0.31031248     -0.92901120     -1.49603307
H       0.19930906     -1.47756849      1.41505903
H       0.16222647      1.92826498     -0.69268536
H      -2.12756403      0.18766130      0.34007686
