17
b3lypvtz=-194352.32534872
C       3.42141377     -0.29592289     -0.29540428
C       2.32245022      0.05416050      0.02965452
C       1.00039398      0.50853590      0.44327319
O       0.00464794     -0.31751594     -0.13490772
C      -1.32995467     -0.03271647      0.30086149
C      -1.88463583      1.22849986     -0.35817441
C      -2.15616768     -1.26511850     -0.03025389
H       4.39139340     -0.61253143     -0.58697406
H       0.87588319      1.55689290      0.14403364
H       0.93187142      0.47633991      1.54015889
H      -1.31541859      0.10796954      1.39125786
H      -1.29202707      2.11141937     -0.11638804
H      -1.89732725      1.11023594     -1.44298613
H      -2.90491895      1.41635056     -0.01916964
H      -1.74207331     -2.14571000      0.45984283
H      -3.18861531     -1.13493746      0.29712370
H      -2.15472726     -1.44058779     -1.10726195
