13
b3lypvtz=-211321.75514076
C      -0.11248137      1.97267789      0.57193442
C      -0.49138226      0.71837606      0.30296988
N      -1.82617825      0.48221971     -0.06657506
C      -2.24005069     -0.69789476     -0.28761705
N       0.35179413     -0.41671549      0.45133232
N       1.55216414     -0.21098259      0.18277227
N       2.33099677     -1.28569979      0.34620209
H       0.89265237      2.19857257      0.89194451
H      -0.83092755      2.77166471      0.47427383
H      -1.61800787     -1.58855044     -0.20016652
H      -3.27958735     -0.82869399     -0.57659453
H       1.96046540     -2.04515704      0.90788770
H       3.31054254     -1.06981684      0.40745112
