16
b3lypvtz=-204460.37970603
C      -0.61278983      0.97586592      1.29543937
C      -0.31202018      0.15528121      0.05831516
C      -1.49830718      0.01615011     -0.87320908
C       0.53386279     -1.12265768      0.27855250
C       1.60245945     -0.38208395     -0.48474070
N       2.77191952     -0.64717452     -0.84365977
O       0.84187321      0.75123008     -0.67634963
H      -0.96063780      1.97179926      1.01750179
H      -1.39293150      0.49496707      1.88879021
H       0.27627188      1.08371901      1.91670140
H      -1.85850312      0.99851125     -1.18193772
H      -2.31562387     -0.50468082     -0.37054535
H      -1.22793716     -0.54661290     -1.76666860
H       0.16944746     -2.02279742     -0.21261575
H       0.79123694     -1.34878501      1.31145951
H       3.19147939      0.12726838     -1.35703333
