14
b3lypvtz=-227015.3188464569
C      -1.08051386      0.36120435     -0.66852132
C       0.03781612     -0.59249075     -1.01613867
C       1.23352122     -0.71887594     -0.43543027
C       1.87123940      0.08342593      0.65936792
O       3.07605617      0.11853922      0.73950085
O       1.09331853      0.75287448      1.51313748
N      -1.45119541      0.26672961      0.75813541
H      -1.92826929      0.17187061     -1.33254564
H      -0.75973112      1.39042436     -0.84902122
H      -0.16127702     -1.24050986     -1.86286489
H       1.92597485     -1.44360488     -0.84427764
H      -2.16503789      0.94621011      0.99468019
H       0.12566843      0.55762674      1.36983722
H      -1.81757015     -0.65342402      0.97414058
