12
b3lypvtz=-226238.40433043
N       0.64101548      2.59090799     -0.15010151
C       0.52409534      1.45135773     -0.26069518
C       0.34988156      0.00485871     -0.35441346
C       1.54950210     -0.72501950      0.26679062
O       1.43785817     -1.73619234      0.90054445
C      -1.00327764     -0.44827334      0.23748282
O      -2.09769386      0.08552133     -0.47558541
H       0.35584147     -0.25476516     -1.42098648
H       2.53506179     -0.26380419      0.06996628
H      -1.06194722     -1.53033197      0.15122772
H      -1.03783723     -0.19467637      1.30024617
H      -2.19249994      1.02041712     -0.26457602
