11
b3lypvtz=-236302.10465523
N       2.40380251     -0.10521919      0.59347246
C       1.68668941     -0.73302055     -0.21899460
O       0.32496858     -0.64242841     -0.45099312
C      -0.39976776      0.48229890     -0.16725837
N      -0.04285380      1.69228726     -0.19284554
C      -1.84168873      0.17439997      0.16120688
O      -2.28675296     -0.93563069      0.24782149
H       1.90121019      0.58077622      1.15350213
H       2.08995223     -1.51576432     -0.85238736
H       0.93448543      1.82941868     -0.44464234
H      -2.43921810      1.08912713      0.31355637
