18
b3lypvtz=-205207.72497163
C      -2.33237086     -0.90460275      0.16863528
C      -1.30906749     -0.12867573      0.49683056
C      -0.33327477      0.47048033     -0.48205915
N      -0.40161633      1.93534415     -0.38392055
C       1.10020095     -0.07558140     -0.28625903
C       1.22568451     -1.58123354     -0.47501376
O       1.50899213      0.32659128      1.02688818
H      -2.54120805     -1.16734809     -0.86229129
H      -3.00719622     -1.30075618      0.91642058
H      -1.13139861      0.11628311      1.53896058
H      -0.64618338      0.19414880     -1.49263620
H       0.02053372      2.22489479      0.49222080
H       0.15447303      2.35698487     -1.12025860
H       1.73093154      0.43104469     -1.03108102
H       2.26625290     -1.89741453     -0.36612409
H       0.89571933     -1.87626058     -1.47358975
H       0.62288116     -2.11596259      0.25831834
H       2.40410744      0.01290937      1.18289814
