13
b3lypvtz=-213745.32805411
C      -2.50206339      0.29746313      0.61175507
N      -1.56553897      1.11147810      0.35419786
C      -0.30965254      0.70841641     -0.06993746
C       0.45886100     -0.26971942      0.44924555
O      -0.05047789     -1.14685489      1.37618244
C       1.85540713     -0.49487829      0.03607016
N       2.69289736      0.31910001     -0.46349213
H      -3.43777272      0.69136215      1.00032024
H      -2.43370857     -0.77905525      0.45261529
H       0.12971096      1.33683356     -0.83411211
H       0.66635348     -1.50906697      1.90752198
H       2.19821712     -1.52375022      0.18998872
H       2.29766704      1.25877167     -0.53645561
