15
b3lypvtz=-216902.42398774
O      -0.36912875      0.14848844      2.03859687
C      -0.12688982      0.08196053      0.66746657
C      -0.21672352      1.37274938     -0.16292226
O       0.01610607      0.83695531     -1.48275108
C       0.17604372     -0.57315608     -1.19605081
C       1.13105391     -0.58251869      0.01556539
C      -0.97617851     -0.86968628     -0.21018789
H       0.24220883      0.77632736      2.43899011
H      -1.19965146      1.84530985     -0.10395728
H       0.55518660      2.10541648      0.09184049
H       0.34866172     -1.12218229     -2.11427910
H       2.04874501     -0.00065137     -0.06795886
H       1.31949112     -1.57689347      0.41389770
H      -1.97811419     -0.55252466     -0.49521619
H      -0.97091070     -1.88979451      0.16696633
