19
b3lypvtz=-218447.01480649
C      -2.79428111     -0.14977472     -0.11241260
O      -1.47868009      0.30261985      0.12859622
C      -0.47875442     -0.54367446     -0.41616674
C       0.89008195     -0.01122451      0.01986221
C       1.14802259      1.38377052     -0.56075121
C       1.98369990     -0.99005526     -0.39137970
O       0.91953802      0.04293297      1.45152687
H      -2.96238421     -1.14363977      0.31972061
H      -3.47389163      0.56067614      0.35505907
H      -3.01144290     -0.19591873     -1.18642293
H      -0.60774452     -1.56500881     -0.03631300
H      -0.55468838     -0.56877139     -1.51144580
H       1.19861615      1.35616579     -1.65134331
H       2.09372043      1.76815946     -0.17923375
H       0.35214241      2.07124577     -0.27533056
H       2.01946311     -1.10766753     -1.47545988
H       1.81468153     -1.96591997      0.06441572
H       2.95260196     -0.62188826     -0.05400988
H       0.10579621      0.48111790      1.72850765
