12
b3lypvtz=-200517.27186247
C      -2.02437188      0.81530248     -0.32604903
C      -1.02753446     -0.05136652     -0.08574311
C      -1.34167346     -1.39984262      0.29834621
N      -1.62609657     -2.47338874      0.60225703
C       0.37880446      0.31582863     -0.20159127
N       1.30307349     -0.53411022      0.03539483
N       2.59054243     -0.13866804     -0.02223581
H      -1.80927263      1.83484972     -0.61584135
H      -3.05972416      0.52423272     -0.23771689
H       0.59291102      1.34788301     -0.49354058
H       2.80483273      0.67365806     -0.59301912
H       3.21840903     -0.91437848     -0.15446092
