15
b3lypvtz=-193629.07082444
C       0.68334549     -0.99730015     -0.57200528
C       1.39306846      0.32634090     -0.22967493
C       0.58247158      0.94298804      0.91847918
O       1.00281913      1.73785480      1.72369942
C      -0.78047369      0.34135629      0.90723918
C      -0.73840312     -0.85234063     -0.03225044
C      -1.49585965      0.36185320     -0.43823806
H       1.17712645     -1.82637156     -0.06231753
H       0.69417723     -1.22119191     -1.64003978
H       2.42896456      0.20370800      0.07969017
H       1.39548176      1.02795575     -1.06770700
H      -1.36697060      0.37830934      1.81284542
H      -1.29241415     -1.74831433      0.21052661
H      -2.57484174      0.32688393     -0.38701886
H      -1.10849172      0.99826831     -1.22322810
