15
b3lypvtz=-214532.3495954
C      -2.33323344     -0.30888181      0.24436220
N      -0.92123573     -0.28499088     -0.03405728
C       0.06872569     -1.35456198     -0.19141206
C       1.13654424     -0.24429905     -0.42247939
N       2.30085919     -0.26954055      0.43362593
C      -0.03162356      0.74932773     -0.14949024
O      -0.15707211      1.94479656     -0.04374301
H      -2.67661336      0.72197043      0.31994214
H      -2.54645200     -0.82044528      1.18722663
H      -2.88888896     -0.80825483     -0.55370163
H      -0.12091722     -2.02624775     -1.03146726
H       0.23759974     -1.94002214      0.71586915
H       1.46189876     -0.19593316     -1.46177474
H       2.93305503      0.48342542      0.19024668
H       2.04148273     -0.13036070      1.40413087
