16
b3lypvtz=-204402.15499075
C       2.16092420     -0.09873023      0.31342391
C       0.79737195      0.46349316     -0.03031736
C      -0.43675313      0.09091121      0.83370680
C      -1.32020139      0.52301716     -0.37493081
C      -0.17708261     -0.35515122     -0.92255304
N      -0.34770106     -1.31284872      0.25179470
O      -2.60657605     -0.03885282     -0.51210821
H       2.59569779      0.43959981      1.15861045
H       2.09372316     -1.15332275      0.57043141
H       2.84554093      0.01229072     -0.53042986
H       0.85070245      1.52232441     -0.29304380
H      -0.59567968      0.26725643      1.89769015
H      -1.31456644      1.58385988     -0.64707541
H      -0.03051123     -0.70953830     -1.94184297
H      -1.28844641     -1.70585929      0.20919454
H      -3.22644248      0.47155054      0.01744953
