12
b3lypvtz=-221424.17120622
C       2.49422364      0.38145893      0.08966837
N       1.44586797     -0.59547011     -0.14645284
C       0.13599012     -0.23602376     -0.04931112
N      -0.31146770      1.01643824     -0.05500690
N      -1.63051708      0.80058561      0.00753011
H      -2.30374029      1.54896845      0.02159964
N      -1.98269620     -0.46248304      0.05930235
N      -0.87389396     -1.15048309      0.02570726
H       2.47735781      0.78975842      1.10609625
H       2.38805122      1.21135874     -0.60775851
H       3.45817795     -0.09200572     -0.08546519
H       1.62507051     -1.54325467      0.14030158
