13
b3lypvtz=-239456.76319774
O       2.07999927     -0.22726304     -0.99926645
C       0.91594977      0.02327901     -0.30291039
C       0.05402713     -1.14677783      0.06863848
O      -1.04657117     -0.72426797      0.87144749
C      -1.58786285      0.48183669      0.40750054
O      -0.68055876      1.56284763      0.52851001
C       0.54326933      1.26934515     -0.02096591
H       2.56522469     -0.94113596     -0.57000442
H      -0.29171023     -1.68209039     -0.82675337
H       0.61427532     -1.85973363      0.68168656
H      -2.44439309      0.71700760      1.03249120
H      -1.87605434      0.38996009     -0.64892926
H       1.15430494      2.13689265     -0.22134449
