13
b3lypvtz=-239472.32085187
O      -2.22751534     -1.03432254      1.26370254
C      -1.55219928     -0.24610527      0.65155379
O      -1.84743061      1.06395137      0.54879042
C      -0.24898740     -0.62609478     -0.02084928
C       1.01693193     -0.37114552      0.83774946
C       1.41709699      0.58539814     -0.29913285
O       0.21335724      0.26972296     -1.04190621
H      -2.67187713      1.20044393      1.04002003
H      -0.36388046     -1.64790426     -0.38575105
H       1.65175237     -1.24352798      0.96546778
H       0.83971211      0.09202242      1.80506395
H       2.31530329      0.31407753     -0.85677608
H       1.45773629      1.64348402     -0.03403251
