17
b3lypvtz=-194358.40210654
C       1.65979419      0.79753002     -0.62738859
C       0.56230396      0.56862131      0.39947403
C       0.47221769     -0.79710478      1.16650528
C      -0.99415571     -0.92131858      0.74720648
C      -0.88311692      0.35456258     -0.06419062
C      -1.08225526     -0.95720403     -0.76104609
O      -1.81567238      1.38457784     -0.14971773
H       1.51371984      1.74535982     -1.15115630
H       1.68582377      0.00277594     -1.37552409
H       2.64232960      0.83427068     -0.15178974
H       0.56106547      1.38077085      1.12868226
H       0.62167116     -0.69170396      2.23960518
H       1.12714807     -1.58864333      0.79529405
H      -1.81007393     -1.26162632      1.36815045
H      -0.29964197     -1.42580264     -1.34897333
H      -2.08316351     -1.09682550     -1.14854071
H      -1.87799408      1.67176009     -1.06659055
