14
b3lypvtz=-180335.71164831
C      -1.44097850      1.48623009      0.21231187
C      -0.81863728      0.32475221      0.17178510
C      -0.78713735     -0.92884003      1.01764084
N      -0.05533582     -1.62595395     -0.08122321
C       0.14032348     -0.33590649     -0.82402691
C       1.49906716      0.18933679     -0.83518230
C       2.62923095      0.59483284     -0.83998753
H      -2.11750440      1.73578252      1.02017454
H      -1.29075249      2.23446599     -0.55553404
H      -0.21444704     -0.80915913      1.94347161
H      -1.75045432     -1.38296008      1.25839010
H       0.81713116     -2.05004374      0.20680313
H      -0.23618726     -0.39295893     -1.84914210
H       3.62568170      0.96042191     -0.84548109
