17
b3lypvtz=-191976.7268838
C       2.36166843      0.00667453      0.09894915
N       0.96551929     -0.01174744     -0.28778166
C       0.26727482      1.20250615     -0.14449339
C      -1.05131873      1.26379535      0.07906046
N      -1.83929410      0.11083046      0.25678401
C      -1.22658374     -1.10825049     -0.26052590
C       0.22919752     -1.17046556      0.19817415
H       2.86382263      0.85183863     -0.37281515
H       2.84929380     -0.90770367     -0.24350288
H       2.50885696      0.08548521      1.18854506
H       0.85440126      2.10313412     -0.24380076
H      -1.55833177      2.21347279      0.15762651
H      -2.79552574      0.23115220     -0.04040133
H      -1.76622786     -1.97504878      0.12480270
H      -1.24997267     -1.15211294     -1.35730263
H       0.69886373     -2.07643117     -0.19201838
H       0.25559817     -1.22785840      1.29742804
