15
b3lypvtz=-214494.01428862748
C      -0.10619594      1.19471585     -0.34678489
C       1.20280479      0.48741631     -0.66336926
C       1.60513141     -0.38589785      0.44784374
N       0.59456502     -0.89567286     -0.49869625
C      -0.71961813     -0.22978272     -0.18455349
N      -1.31869110     -0.72082961      1.02812726
O      -1.61337362     -0.43747124     -1.23628047
H      -0.55297621      1.71803858     -1.18750502
H      -0.10139677      1.83855505      0.53301679
H       1.85246450      0.71174427     -1.49801976
H       2.54455456     -0.91739387      0.37084376
H       1.32564508     -0.12808559      1.46454788
H      -2.19985178     -0.25046890      1.19593558
H      -0.72693216     -0.59661372      1.83826628
H      -1.78612965     -1.38825372     -1.26337212
