13
b3lypvtz=-247070.8160657
C      -1.76699392      1.35203083     -0.32566211
C      -1.19371412      0.20801081      0.01765231
F      -1.94560715     -0.80768785      0.49797722
C       0.23044016     -0.13194558     -0.05376420
F       0.44259428     -1.40614280     -0.46525524
C       1.25397308      0.66135915      0.24227225
C       2.69613188      0.29395809      0.11103258
H      -1.18139556      2.14398344     -0.76351642
H      -2.82564567      1.50257364     -0.17467645
H       1.00703383      1.64729329      0.61286766
H       3.20898843      0.98006497     -0.56829982
H       2.82117206     -0.71879120     -0.26519230
H       3.20356169      0.36882220      1.07605354
