10
b3lypvtz=-202151.12171839
C       2.19196644      0.83021541      0.43673182
C       1.34183757      0.01591140      0.20169607
C       0.30455389     -0.94720685     -0.08853018
O       0.49467217     -2.13839614     -0.06994081
C      -1.06956193     -0.38033851     -0.48768138
C      -1.53332111      0.72433478      0.33988319
N      -1.90213281      1.58943394      1.00135152
H       2.94955059      1.54457311      0.65016159
H      -1.78417610     -1.20244412     -0.45962211
H      -0.99338874     -0.03608304     -1.52404971
