14
b3lypvtz=-201297.87183576
C      -1.33494302      0.47354563      0.36226047
C      -1.12601904     -0.81046115     -0.46271888
N       0.02013837     -1.62530045     -0.10810358
C       1.15950181     -1.11729753      0.08683474
N       1.57123791      0.21517177      0.06453670
C       0.82036468      1.38851231     -0.00672627
N      -0.42542322      1.56995294      0.08998511
H      -1.28179384      0.21539238      1.42489691
H      -2.34864496      0.83656937      0.18117983
H      -1.06117892     -0.53615405     -1.52063717
H      -2.01586058     -1.43441329     -0.35779389
H       1.99392845     -1.78398760      0.29892652
H       2.56915566      0.35165278      0.10651295
H       1.45953672      2.25681688     -0.15915345
