19
b3lypvtz=-195141.07805687
C      -2.33880659     -0.35732613     -0.56077239
C      -1.11403940      0.24188137      0.10439820
C      -0.17114261     -0.64482027      0.96292691
C       1.03653628      0.16796014      0.42146428
C       0.12446985      0.59885658     -0.75189568
O       0.25404381      1.88051368     -1.33015687
C       2.35798626     -0.51823989      0.13127071
H      -2.07475242     -1.25045390     -1.13197444
H      -3.09482756     -0.64474918      0.17346473
H      -2.79807856      0.35512264     -1.24951443
H      -1.39734169      1.12588519      0.68587011
H      -0.15267029     -1.67399965      0.59760039
H      -0.33048793     -0.66046335      2.04004915
H       1.19891913      1.03658287      1.06875682
H       0.22287278     -0.10401554     -1.58320571
H       0.17460705      2.53742810     -0.63073004
H       2.21097597     -1.39507105     -0.50374558
H       2.84788612     -0.85156041      1.04895878
H       3.04384977      0.15646884     -0.38565995
