21
b3lypvtz=-172614.10113394
C       0.96886379      1.25122608     -0.39920485
C       1.77223554      0.00002072     -0.00000007
C       0.96889387     -1.25120487      0.39920251
C      -0.31470345     -1.52703278     -0.39850317
C      -1.53970129     -0.75736811      0.11530457
C      -1.53971949      0.75733245     -0.11530209
C      -0.31473847      1.52702581      0.39850262
H       0.69857536      1.18836956     -1.45769335
H       1.63639711      2.11313616     -0.32036274
H       2.43367097      0.25217460      0.83388339
H       2.43367953     -0.25211647     -0.83388179
H       0.69860583     -1.18835784      1.45769166
H       1.63644727     -2.11309906      0.32035677
H      -0.15582618     -1.32115448     -1.46249067
H      -0.54006956     -2.59469667     -0.33136291
H      -1.63738780     -0.95525335      1.18861822
H      -2.43990208     -1.17107896     -0.34866617
H      -1.63741333      0.95521537     -1.18861549
H      -2.43992888      1.17102210      0.34867086
H      -0.15585460      1.32115226      1.46249006
H      -0.54012913      2.59468448      0.33136162
