15
b3lypvtz=-214530.54352273
C       1.65152418     -0.65179756      0.09825649
N       0.35440752     -0.06165927      0.36836662
C      -0.82663593     -0.88641760      0.07678159
C      -1.92224481      0.18912818     -0.09631579
N      -1.20754769      1.43845486     -0.38116926
C       0.01030656      1.21225623     -0.10482402
O       0.95990131      2.16131702     -0.21264329
H       2.46181065      0.00949288      0.41083202
H       1.75744136     -1.56482891      0.68334972
H       1.79538372     -0.90282816     -0.96208110
H      -0.66940423     -1.45253176     -0.85160633
H      -1.02576659     -1.59466113      0.88096539
H      -2.62081665     -0.05376374     -0.89684124
H      -2.50593844      0.30889012      0.82163485
H       1.78767904      1.84884884      0.16509435
