15
b3lypvtz=-216873.18676513
C      -0.59392290     -0.97338800     -0.79569887
C      -1.36963875     -0.68384463      0.50327522
C      -1.24756998      0.83238052      0.24116637
C       0.12289484      0.16033370     -0.02070021
O      -0.07702968     -0.63378042      1.23706213
C       1.48478537      0.75184758     -0.21279280
O       2.49137990     -0.24609286     -0.25598627
H      -1.06728157     -0.71499584     -1.74268091
H      -0.06450219     -1.92154379     -0.82525389
H      -2.17962082     -1.24119057      0.96583498
H      -1.78060225      1.24775093     -0.61373856
H      -1.29465384      1.46242421      1.12614455
H       1.52368666      1.28403723     -1.16502517
H       1.67235152      1.47744727      0.58856974
H       2.37972369     -0.80138531      0.52425999
