15
b3lypvtz=-191201.87009685
C       3.15018493     -0.18325114     -0.01459636
C       1.71474629      0.05743849     -0.01446783
C       0.52683434      0.26894279     -0.00816357
C      -0.87470537      0.51026703     -0.02296169
N      -1.27137998      1.88201679     -0.02402615
C      -1.75649654     -0.50874163      0.02770046
N      -1.43572208     -1.86815349      0.04818735
H       3.68828407      0.67939816     -0.41312377
H       3.40767852     -1.04686486     -0.63180935
H       3.52568321     -0.36969940      0.99446319
H      -0.78324725      2.40939861     -0.73717460
H      -2.26679956      1.98175330     -0.17432975
H      -2.81894588     -0.29747106      0.00173536
H      -2.03585203     -2.42298253      0.64082678
H      -0.46153867     -2.04727605      0.25059992
