14
b3lypvtz=-227005.74846729
C      -2.12472923      0.59440372      0.21658534
C      -0.90708710      0.03543287      0.25317448
N      -0.66824915     -1.26069578     -0.33613783
C       0.26939150      0.66463506      0.82481666
C       1.53830077      0.34233318      0.48994390
O       1.91591738     -0.60022667     -0.38703547
O       2.58967345      0.98728274      1.03011836
H      -2.28365705      1.60174716      0.57224276
H      -2.98010975      0.06148960     -0.17624290
H      -0.49856668     -1.95793638      0.38259567
H      -1.45748448     -1.56182252     -0.89311412
H       0.13479270      1.49382429      1.50162662
H       1.08024388     -1.01939729     -0.71644156
H       3.39156376      0.61903001      0.63936810
