14
b3lypvtz=-222146.69919376
C       3.27188120      0.43286858      0.53470072
N       2.15337903      0.48619642     -0.39448505
N       0.93217963      0.53512411      0.24551323
C      -0.08908867      0.09526674     -0.36569592
N      -1.34444576      0.20797646      0.20663044
N      -2.41395673     -0.28346396     -0.41494661
N      -3.47743824     -0.12568225      0.22645204
H       4.19738796      0.46288792     -0.04011349
H       3.23580928      1.30998523      1.17869482
H       3.27520208     -0.46176522      1.16962885
H       2.20472495     -0.24833089     -1.09613884
H      -0.09455573     -0.37495089     -1.34851870
H      -1.46484653      0.64700193      1.11538335
H      -4.21054146     -0.53753818     -0.35260184
