11
b3lypvtz=-233865.2690907
N      -1.80685449      0.43394865     -0.24059401
C      -0.86508433     -0.52428057      0.33011041
C       0.57883908     -0.19635778      0.10080143
N       1.45061566      0.09673406      1.01546352
O       2.59739506      0.35843511      0.33818343
N       2.34570790      0.20403510     -1.03195808
N       1.14924045     -0.12392321     -1.16344325
H      -1.69224476      0.49727683     -1.24507472
H      -1.65661661      1.36022676      0.14114217
H      -1.03041581     -0.59969015      1.40395184
H      -1.07058215     -1.50650480     -0.09868273
