14
b3lypvtz=-224570.60297403
C       0.21839298      1.80058147     -0.35936953
C       0.31978126      0.40362507      0.27286135
C       1.76465585     -0.02619234      0.37800675
O       2.20090063     -1.06456980     -0.04993249
N      -0.42161930     -0.61163633     -0.44703453
N      -1.71366851     -0.86588736     -0.23418775
N      -2.31301110     -0.00204099      0.44782880
H       0.80347247      2.52506114      0.21025904
H      -0.82137741      2.11803922     -0.35745001
H       0.58250787      1.78537653     -1.38688394
H      -0.08022594      0.47045056      1.29431686
H       2.42459012      0.70761793      0.88046785
H       0.09739854     -1.41411076     -0.76946671
H      -3.27878345     -0.32682432      0.50975132
