14
b3lypvtz=-203678.12932007
C      -1.18179835     -0.02601955     -0.71515945
C      -1.13758909      1.08244977      0.31261522
N      -0.34771522      0.91156324      1.29450717
C       0.35189534     -0.33703252      1.11252336
C      -0.12393833     -0.98435484     -0.19295259
C       1.26433314     -0.43300172     -0.09160005
O       1.58493371      0.68538805     -0.86552326
H      -2.17208698     -0.48695012     -0.76277545
H      -0.95353880      0.36202946     -1.71082124
H      -1.72560745      1.99150287      0.22567451
H       0.60532513     -0.88135768      2.01109556
H      -0.26244303     -2.05014994     -0.29957331
H       2.06298690     -1.16414538     -0.00803570
H       2.03524300      1.33007837     -0.30997477
