17
b3lypvtz=-194361.96831818
C       3.35634474      0.35066171     -0.00721051
C       2.08551276     -0.43513101     -0.10834578
C       0.87868777      0.08906126      0.06723975
O      -0.26572706     -0.64812599     -0.08839113
C      -1.41694403     -0.09780361      0.49806899
C      -2.16732398      0.97672225     -0.23637932
C      -2.70877696     -0.43478164     -0.15846201
H       3.90964454      0.34234173     -0.95080605
H       3.16314919      1.39229736      0.25426732
H       4.02446411     -0.06610318      0.75170521
H       2.15547874     -1.49003184     -0.35109957
H       0.72494686      1.13552789      0.31540227
H      -1.37901735     -0.05440697      1.58175591
H      -2.65042408      1.75502156      0.33814068
H      -1.76117017      1.29383018     -1.18662442
H      -3.56660924     -0.63433776      0.46796508
H      -2.64680183     -1.03531392     -1.05479541
