17
b3lypvtz=-191974.65526168
C       2.85238749      0.12963599     -0.14938161
N       1.56863977     -0.49776707     -0.43051355
C       0.52465549      0.17552311     -0.16992145
N      -0.73817172     -0.32235916     -0.39710881
C      -0.83724765     -1.66585095     -0.95537384
C      -1.89615965      0.39987489     -0.11659942
C      -2.03074100      1.62864515      0.38983072
H       2.96824041      0.37642342      0.91157813
H       3.65407650     -0.55699020     -0.41695361
H       2.99793134      1.04921149     -0.72655795
H       0.53781262      1.18387990      0.24711650
H      -0.36004217     -2.39116969     -0.29576576
H      -1.88633142     -1.92114430     -1.07939465
H      -0.33165194     -1.71808760     -1.92008187
H      -2.78953053     -0.15914362     -0.36215855
H      -1.20814568      2.26960572      0.66802634
H      -3.02572188      2.01971291      0.53605606
