12
b3lypvtz=-285462.2210419
F      -0.65291474      0.00000669      1.31925815
C      -0.67582216      0.00000042     -0.03226768
F      -1.38703385     -1.08361738     -0.41429555
F      -1.38703655      1.08361283     -0.41430570
C       0.69272991     -0.00000060     -0.63003807
C       1.80861107     -0.75082496      0.04122256
C       1.80861185      0.75082460      0.04122037
H       0.65860327     -0.00000221     -1.71061824
H       1.58561467     -1.25146432      0.97209148
H       2.50563063     -1.27175253     -0.59898970
H       2.50563189      1.27174956     -0.59899347
H       1.58561600      1.25146688      0.97208784
