17
b3lypvtz=-194355.22057703
C       2.83712291      0.30434779     -0.47505208
C       1.75046689     -0.07938300      0.16077981
C       1.01492104     -1.15360802      0.83132708
C       0.41213246      0.25381462      0.65055872
C      -0.74559196      0.48353625     -0.30009103
C      -2.09856477      0.17238281      0.33558140
O      -3.19558215      0.45416962     -0.52787274
H       3.66401882     -0.37567335     -0.64081935
H       2.94322793      1.31408068     -0.85315982
H       0.60653369     -1.95681347      0.22712366
H       1.31430720     -1.45622745      1.82809169
H       0.37144547      0.85013154      1.55853674
H      -0.60797532     -0.13635915     -1.19241328
H      -0.74960417      1.52264906     -0.63943925
H      -2.25159764      0.80237607      1.21360528
H      -2.12331198     -0.86974520      0.67588011
H      -3.14184842     -0.12967878     -1.29063694
