16
b3lypvtz=-204467.46652192
C       1.91614377     -0.95418616     -0.15058825
C       0.55052713     -0.54995667      0.38918698
C      -0.64114322     -1.35969335     -0.13708321
C      -1.79498042     -0.37711277      0.04403057
O      -1.21426222      0.92731090     -0.12705473
C       0.13519263      0.88154570      0.05742239
N       0.80982725      1.94075009     -0.05459274
H       2.70735963     -0.31861098      0.25042031
H       2.15249572     -1.98216301      0.12714902
H       1.94399535     -0.88014968     -1.23884974
H       0.56532108     -0.62059122      1.48314160
H      -0.79895740     -2.29743861      0.39393432
H      -0.49844772     -1.58696574     -1.19589608
H      -2.59013743     -0.48359651     -0.69115791
H      -2.23133736     -0.43982362      1.04502821
H       1.79662122      1.75374065      0.09741327
