14
b3lypvtz=-203688.82491158
C      -0.64567100      0.94987619     -0.67872626
C      -1.86579107      0.06763418     -0.49680584
C      -1.56822549     -0.90930620      0.36217004
N      -0.25541938     -0.81279104      0.83657115
C       0.41283743      0.17961510      0.09575770
C       1.73273124      0.35359459      0.09424692
O       2.53497651     -0.42931816      0.91468188
H      -0.81116281      1.94541589     -0.25026636
H      -0.36664785      1.10053604     -1.72418786
H      -2.83281954      0.25936520     -0.92997361
H      -2.21046283     -1.68902753      0.74200918
H       0.26000473     -1.62348400      1.13784372
H       2.21451430      1.13073207     -0.48317645
H       3.40113576     -0.52284232      0.50999488
