12
b3lypvtz=-202918.81473797
C       2.91498103     -0.87307810     -0.00009605
C       1.86089222     -0.29987976      0.00000213
C       0.60942185      0.44425991      0.00008091
O       0.56942257      1.65820802     -0.00002172
N      -0.50348437     -0.36345728      0.00006998
C      -1.80583705      0.12892198      0.00001158
C      -2.89639958     -0.63287132     -0.00003291
H       3.85282910     -1.37188040     -0.00015384
H      -0.35756277     -1.36064781      0.00009621
H      -1.84593671      1.20834618     -0.00000262
H      -3.87392425     -0.17674491     -0.00014090
H      -2.84964004     -1.71452650      0.00003621
