17
b3lypvtz=-194356.03620757
C       2.05386816      0.09116597      0.33155848
C       0.72659380     -0.56084172      0.64207081
O       0.57202939     -1.85109451     -0.01704487
C      -0.67970707     -1.45483837     -0.62723088
C      -0.54253561     -0.05551540     -0.04823737
C      -0.78131901      1.25372139     -0.72746648
C      -1.60351450      0.85261478      0.47647873
H       2.18086969      0.22429563     -0.74306915
H       2.87037256     -0.53043299      0.70271484
H       2.12733250      1.06708184      0.81772989
H       0.60530273     -0.67948071      1.72527881
H      -0.64477713     -1.53692323     -1.71723568
H      -1.52079138     -2.04214279     -0.24523737
H      -0.04837902      2.03997781     -0.60267150
H      -1.26018694      1.24142341     -1.69826473
H      -2.63777964      0.57418309      0.31952865
H      -1.41737852      1.36690584      1.41089781
