13
b3lypvtz=-190470.07735235
N      -2.82451490      0.00491385     -0.36575507
C      -1.74667565      0.01686647      0.03828073
C      -0.37924789      0.01881813      0.53390732
C       0.46904022      1.22884481      0.06281858
C       1.79705129      0.56323663     -0.20691006
N       1.81300047     -0.70264633     -0.21072580
C       0.46686584     -1.20912098      0.05907027
H      -0.42293766      0.01660216      1.62432291
H       0.07516892      1.68068426     -0.85126931
H       0.53063110      2.01947959      0.81056046
H       2.69932851      1.13079060     -0.41688229
H       0.06579004     -1.65076217     -0.85550852
H       0.50372971     -1.99580802      0.81154377
