14
b3lypvtz=-227008.12978417
C       2.34211736     -0.64578498      0.03418981
C       1.19408733      0.32291774      0.00455746
O       1.32064117      1.52509767     -0.00689183
C      -0.22503539     -0.29388769     -0.01846497
O      -0.36164613     -1.49580532     -0.03750534
C      -1.38190053      0.66951192     -0.05641871
N      -2.64021346     -0.01177815      0.17241199
H       2.26289355     -1.29301762      0.90962337
H       3.28070367     -0.09864228      0.04954316
H       2.29876684     -1.30531310     -0.83444617
H      -1.20387463      1.44606664      0.69321782
H      -1.29759983      1.18894248     -1.02536452
H      -3.41172615      0.48098744     -0.25430520
H      -2.60336781     -0.95078374     -0.20601487
