18
b3lypvtz=-202817.40880538
N       2.99295915     -0.94188022     -0.16439793
C       2.02634298     -0.08652828      0.31197455
N       1.16359516      0.46242372     -0.43226074
C       0.14254037      1.29046927      0.18281612
C      -1.26962119      0.86149409     -0.22198563
C      -1.67930623     -0.50581861      0.31251128
N      -3.06105777     -0.81567269     -0.07980155
H       3.12971348     -0.92630209     -1.16331247
H       3.83238522     -1.03697704      0.38112190
H       2.04961194      0.03535814      1.40250955
H       0.22562503      1.29777210      1.28203567
H       0.29327182      2.32090222     -0.15365932
H      -1.32647237      0.85518349     -1.31489256
H      -1.98738280      1.60571701      0.13172904
H      -1.64223283     -0.48949710      1.40620838
H      -0.95086172     -1.25612091     -0.01981392
H      -3.33818389     -1.71697174      0.29162530
H      -3.12138537     -0.89529638     -1.08934466
