14
b3lypvtz=-224584.80262236
C      -1.47220478      0.90058595      1.03172250
C      -0.94062365      0.14304139      0.07059299
N      -1.69450951     -0.48538841     -0.95547008
C       0.51602525     -0.01651356     -0.12173589
O       0.93506036     -0.27273399     -1.40338444
N       1.34101870      0.07485461      0.84139416
N       2.68430318      0.03246132      0.52755209
H      -2.54379020      0.97058683      1.16433579
H      -0.83422535      1.46247615      1.69485830
H      -2.68157086     -0.28061724     -0.89160608
H      -1.55710612     -1.48902010     -0.99195525
H       0.14927830     -0.24156660     -1.96928765
H       2.89898370     -0.48422632     -0.31902868
H       3.19946097     -0.31404002      1.32201222
