17
b3lypvtz=-215269.98290314
C      -2.29771446      1.23928883     -0.10843386
C      -2.04214236     -0.22659771     -0.45442350
C      -1.11461319     -0.93139967      0.52720323
O       0.18936599     -0.33699482      0.58143792
C       1.07838200     -0.74045097     -0.37060398
N       2.20289323     -0.18941190     -0.54738439
N       2.55233800      0.84555435      0.30662857
H      -2.96477179      1.70304422     -0.83585033
H      -2.75916673      1.33621516      0.87683462
H      -1.36713906      1.80691033     -0.09729850
H      -1.62332215     -0.30646997     -1.46143594
H      -2.98634113     -0.77942879     -0.46867168
H      -1.50320227     -0.86085453      1.54366982
H      -1.01756461     -1.99213336      0.27642197
H       0.79593648     -1.59068220     -0.98135875
H       1.75802349      1.35965066      0.67454973
H       3.19879654      1.45486135     -0.17076492
