13
b3lypvtz=-213763.5737392
N       2.31473650     -0.12963007      0.00004286
C       1.04931071      0.01739046      0.00001214
C       0.22574728     -1.26591698     -0.00003192
O      -1.20388699     -1.14894936      0.00009539
C      -1.76217086      0.09139178      0.00002545
C      -1.06171542      1.22106334     -0.00002777
N       0.34229175      1.18909019     -0.00001299
H       2.81004924      0.76132041      0.00004785
H       0.51325086     -1.84101980     -0.88104237
H       0.51337583     -1.84115625      0.88084490
H      -2.83964480      0.06235521      0.00002373
H      -1.53195626      2.18968170     -0.00007758
H       0.85559817      2.05365837     -0.00001067
