15
b3lypvtz=-214527.04058915
N       2.83269230     -0.50479811     -0.70264359
C       1.98196325      0.24462567     -0.14369288
C       0.91340128     -0.15688549      0.84951248
C      -0.46461054      0.30016609      0.37118639
O      -0.72964687      1.47436410      0.26561551
C      -1.46181946     -0.79587610      0.01036507
N      -2.75180761     -0.36480234     -0.48370783
H       2.73160840     -1.47624107     -0.39896203
H       1.99140448      1.30612108     -0.39453699
H       1.10519213      0.36114803      1.79364383
H       0.94509689     -1.23322777      1.02651903
H      -1.59532582     -1.42616133      0.89714100
H      -0.97914437     -1.44730155     -0.72765194
H      -3.19772141      0.23764929      0.19891926
H      -2.62884167      0.20967551     -1.30988832
