11
b3lypvtz=-189683.14796083
C      -2.93507666     -0.00867303     -0.00008470
C      -1.73418113     -0.02032322     -0.00010916
C      -0.31523977      0.00909678     -0.00012712
N       0.40829683     -1.11678603      0.00006406
N       1.67793219     -0.69384587      0.00002010
H       2.41506790     -1.37685664      0.00002033
C       1.79866706      0.65638474     -0.00001459
C       0.52027668      1.15530159     -0.00000760
H      -3.99619975     -0.00845609     -0.00004467
H       2.75829672      1.14348167     -0.00003357
H       0.21463393      2.18575110      0.00005892
