14
b3lypvtz=-224555.57934928
C      -0.64128035      1.87434769     -0.82173207
O      -1.20670392      0.57384190     -0.98290020
C      -0.53889721     -0.47341973     -0.42581201
C      -0.52979086     -1.66579704     -1.02477761
N      -0.03054769     -0.19923824      0.86391013
N       0.98123593     -0.86194912      1.17598786
N       1.34514292     -0.70798849      2.45287385
H       0.35485522      1.92623432     -1.27042462
H      -1.30750516      2.55460410     -1.34676060
H      -0.58055333      2.15742435      0.22912034
H      -0.10868974     -2.52232448     -0.52491248
H      -0.97790222     -1.78454299     -1.99898057
H       0.93370393      0.07191089      2.95653383
H       2.30693248     -0.94310313      2.62857121
