17
b3lypvtz=-171051.03541971
C      -2.73980180      0.00000604      0.00004309
C      -1.41757800      0.00000349     -0.00001230
C      -0.36536980      1.10211652     -0.00002296
C       0.71019213     -0.00000181     -0.00001247
C       2.00024834      0.00000631     -0.75591937
C       2.00020807     -0.00000730      0.75596357
C      -0.36537451     -1.10211519     -0.00005153
H      -3.30616620      0.92344577      0.00000964
H      -3.30616689     -0.92343346      0.00012408
H      -0.37407480      1.74056206     -0.88647426
H      -0.37407577      1.74061058      0.88639311
H       2.29444131      0.90975739     -1.26356121
H       2.29444774     -0.90973283     -1.26357871
H       2.29437825     -0.90975767      1.26361961
H       2.29437519      0.90973316      1.26363931
H      -0.37408694     -1.74061831      0.88635779
H      -0.37407631     -1.74055175     -0.88650938
