11
b3lypvtz=-264620.53414558
C      -0.10510259     -0.53796830     -0.50674666
C      -1.26465899     -0.03917113     -0.03301646
O      -1.36607835      0.60961786      1.13879128
O      -2.42800678     -0.14425003     -0.68885134
N       1.01134930     -0.34493089      0.29458311
C       2.15209462     -0.75105318     -0.01320815
F       3.18926073     -0.52736235      0.81389352
H      -0.07037498     -1.05426054     -1.45723612
H      -0.46813559      0.62147015      1.51560105
H      -3.11323714      0.28349436     -0.16096991
H       2.46288978     -1.29331441     -0.90284032
