17
b3lypvtz=-194362.547591
C      -1.70737380     -1.54252220     -0.47934333
C      -0.57094693     -0.93824692     -0.80202515
C       0.09020358      0.18605704     -0.08484067
C       1.58256503      0.02726841      0.08354684
O       1.83763850     -1.06426755      0.96457761
C      -0.64289871      0.96809054      0.96928310
C      -0.39152293      1.59937799     -0.37131836
H      -2.10915923     -2.33823626     -1.09218257
H      -2.27377771     -1.27793076      0.40422303
H      -0.03977405     -1.27390402     -1.68996109
H       2.04092474     -0.15310594     -0.89790878
H       2.00591869      0.95640407      0.48365456
H       2.78322683     -1.23730212      0.97415980
H      -1.65633630      0.68423911      1.21151691
H      -0.06728204      1.31496466      1.81617006
H      -1.22951787      1.70299244     -1.04568938
H       0.34821221      2.38612152     -0.44386258
