18
b3lypvtz=-181900.99419662
C      -2.06824396      1.27190909      0.10240359
C      -1.16515674      0.19114736     -0.44318847
C      -1.48691065     -1.25804477     -0.20353376
C      -0.29213878     -0.64139918      0.47922986
C       1.08495708     -1.05184522      0.09328380
C       2.10122149     -0.20010253     -0.08743040
N       2.05791447      1.17651210      0.09771711
H      -1.54160241      2.22314894      0.21959309
H      -2.46417289      0.99409060      1.08125298
H      -2.91964404      1.44802469     -0.55946989
H      -0.72721424      0.40847606     -1.41076772
H      -2.35740358     -1.48970861      0.39667575
H      -1.29312760     -1.96163076     -1.00243005
H      -0.43748586     -0.42689598      1.53577637
H       1.29138794     -2.11002274     -0.00723664
H       3.08235418     -0.57743564     -0.35035883
H       1.13271875      1.57729041      0.11219153
H       2.70067485      1.71141117     -0.46339132
