15
b3lypvtz=-268744.7083167
N       2.47270284     -0.51450974      0.09589297
C       1.04755543     -0.66903620      0.41463127
C       0.22706251      0.26035618     -0.49499099
N       0.54795685      1.67972759     -0.37022149
C      -1.26779712      0.10047328     -0.29333168
F      -1.65643029     -1.19111516     -0.52832428
F      -1.60742762      0.38891524      1.00796842
H       3.04852816     -0.87662327      0.84495759
H       2.71083787     -1.04488997     -0.73434315
H       0.68332329     -1.69785946      0.31908374
H       0.89486333     -0.36474018      1.45122602
H       0.41378734     -0.02739679     -1.53549322
H       0.31258335      1.99780159      0.56480767
H       1.55347903      1.77949767     -0.45852903
H      -1.84962796      0.75939623     -0.93788486
