13
b3lypvtz=-239459.14997395
O       2.53687425      0.06442832     -0.43473244
C       1.22331235     -0.05605525     -0.11981915
C       0.79151759     -0.63507647      1.00091078
O      -0.53889731     -0.62782696      1.38595593
C      -1.31560557      0.28897049      0.63083509
C      -0.97616455      0.17809250     -0.84650238
O       0.40237511      0.51512862     -1.05246008
H       2.62081443      0.00972695     -1.39478365
H       1.45331638     -1.12816659      1.69174199
H      -2.36177114      0.04341598      0.80986742
H      -1.12262985      1.31212301      0.97317911
H      -1.15621532     -0.84154336     -1.19819945
H      -1.55672638      0.87698275     -1.44589317
