15
b3lypvtz=-214489.38461786
C       0.25708048      0.67233074     -0.70966446
C      -1.13343122      0.48672702     -0.12004759
C      -0.95258667     -0.98376655      0.01408143
C       0.47261110     -0.90957378     -0.52525052
O       1.49768976     -1.33873896      0.33022155
N      -0.92595201     -0.11846127      1.21968459
N       1.09793775      1.63479465     -0.04328873
H       0.20691648      0.90610292     -1.77399523
H      -2.02978400      1.05226552     -0.33030892
H      -1.67557918     -1.78162593     -0.07779039
H       0.60926840     -1.41386132     -1.48006365
H       1.25337890     -1.03679299      1.21502754
H      -1.82672477     -0.18662824      1.68359533
H       2.05780583      1.55518073     -0.35735517
H       1.09136914      1.46204746      0.95515423
