18
b3lypvtz=-181896.50902873
C      -2.62331596     -0.99867049      0.13066158
N      -1.81773846     -0.18977004     -0.41152570
C      -0.69870518      0.26599821      0.33055670
C      -0.24426996      1.68901012      0.08286308
C       0.57747804      0.55007974     -0.43282219
C       1.91855954      0.20769444      0.17540589
C       2.33429538     -1.24586243     -0.05906381
H      -3.48163897     -1.35387703     -0.43342518
H      -2.50720350     -1.37135761      1.15554154
H      -0.58856821     -0.11746676      1.34530540
H      -0.82843288      2.26261568     -0.62201892
H       0.12216541      2.24280047      0.93730045
H       0.49427989      0.36501396     -1.49718993
H       2.67789719      0.87708587     -0.24104785
H       1.89169752      0.41518511      1.24933522
H       3.30910406     -1.45470641      0.38465594
H       2.40026309     -1.46792151     -1.12613717
H       1.61178200     -1.93796633      0.37720196
