12
b3lypvtz=-223833.98261718
C       2.65248842      0.60568079     -0.84852443
N       1.81199710     -0.34307032     -0.76030655
C       0.53473760      0.01321610     -0.31426858
N      -0.35964418     -0.88317202     -0.20059163
C      -1.63739600     -0.52604549      0.24577164
N      -2.58868280     -1.34931282      0.39010070
O      -1.82786108      0.78925873      0.53010324
H       3.66076962      0.39010386     -1.18925078
H       2.41672482      1.64635397     -0.59699047
H       0.35674971      1.06842169     -0.07778860
H      -2.27380352     -2.28071973      0.13449793
H      -2.74627970      0.86938525      0.82054754
