17
b3lypvtz=-191984.15577394
C      -3.28362350      0.24718466     -0.13908319
N      -2.07220226     -0.48625855      0.17102776
C      -0.83798574      0.07822408      0.07586431
C       0.34689933     -0.56566708      0.03230893
C       1.62102743      0.15174693     -0.00141400
C       2.84984445     -0.72992011     -0.08078995
N       1.66192274      1.43251587      0.03164275
H      -4.13670826     -0.22777401      0.34479076
H      -3.48641681      0.31039437     -1.21458523
H      -3.20030140      1.26140519      0.25023550
H      -2.12136626     -1.48795441      0.07463632
H      -0.82824767      1.16280005      0.06767561
H       0.37797800     -1.64969620      0.02471947
H       2.81548740     -1.35902905     -0.97381320
H       3.76252244     -0.13574215     -0.10795309
H       2.89640866     -1.40197453      0.77989375
H       2.62341845      1.76379693     -0.00927150
