17
b3lypvtz=-217682.08555827
C      -2.26136550      0.04735546     -0.57693441
C      -1.02549948     -0.37385482      0.17954142
C      -0.47185093      0.47211307      1.29456835
C       0.27470055      0.35756616     -0.00735335
C       1.57387264     -0.39632503     -0.05922567
O       2.67078757      0.33071108      0.46070582
O       1.79796318     -0.75251481     -1.40969424
H      -2.27793745     -0.38636664     -1.57890706
H      -3.16907041     -0.26975744     -0.05863476
H      -2.30439683      1.13317028     -0.68413258
H      -0.93017794     -1.44495142      0.32033512
H      -0.96253997      1.41143646      1.51241335
H      -0.05097438     -0.02016092      2.16117090
H       0.25270397      1.21630660     -0.67098970
H       1.52350449     -1.28792226      0.57517617
H       2.71533174      1.17339907     -0.00679143
H       2.64494874     -1.21020485     -1.45124792
