14
b3lypvtz=-224569.62462401
C       2.39725201      0.57851099     -0.48412169
N       2.08249430     -0.57114092     -0.03776405
N       0.82762538     -0.83628945      0.45370082
C      -0.33833916     -0.11296502      0.21053573
O      -0.27187182      1.19774721      0.53871518
C      -1.47997868     -0.66669445     -0.23242417
N      -2.64034276      0.17868229     -0.26524576
H       3.41796412      0.68590731     -0.82998184
H       1.73296575      1.43442950     -0.52753410
H       0.68615185     -1.83014729      0.51187720
H      -1.17347570      1.52683247      0.35645253
H      -1.51874940     -1.70775279     -0.52946377
H      -3.38109405     -0.14988758      0.34386990
H      -3.02852082      0.26132275     -1.19719799
