15
b3lypvtz=-193579.64691698
C       2.19136325     -0.76290979     -0.29211584
C       1.23920227      0.11578854     -0.59461767
C      -0.08652072      0.21000395      0.02517239
C      -0.89382823      1.50250366      0.15102732
O      -2.14732414      0.82039008     -0.13558001
C      -1.43867757     -0.39882855     -0.34727846
C      -0.74016860     -0.84314441      0.89126913
H       3.13392572     -0.77133663     -0.82220702
H       2.06305083     -1.50131153      0.48912833
H       1.43226853      0.84516787     -1.37762763
H      -0.66834599      2.22158458     -0.63944297
H      -0.90273348      2.00152318      1.12293113
H      -1.74293210     -1.03723353     -1.16546709
H      -1.15742650     -0.58020203      1.85674881
H      -0.28185328     -1.82189540      0.83795958
