15
b3lypvtz=-216914.1861822
C       2.29038832      0.48953025      0.50771983
C       1.60175979     -0.50015275     -0.04121390
C       0.26025435     -0.35677175     -0.71194636
O      -0.24170363      0.96868509     -0.61939539
C      -1.47533500      0.93591033      0.10287412
C      -1.42637906     -0.40893756      0.81407676
O      -0.71009815     -1.21521866     -0.11862244
H       3.25179896      0.31514357      0.97260310
H       1.91310890      1.50306750      0.49840734
H       1.98927261     -1.51378723     -0.04531902
H       0.32917415     -0.64987028     -1.76525200
H      -1.50880198      1.78867320      0.78068985
H      -2.31736078      0.99245283     -0.59366309
H      -0.89149323     -0.34060746      1.76724940
H      -2.40241325     -0.86202210      0.97497580
