18
b3lypvtz=-205202.37524001
C       1.98240913      0.40012831      0.28389880
C       0.91528444     -0.48286742     -0.33893108
C      -0.51352657     -0.12024497      0.05229839
C      -1.19307400     -0.94173317      1.07988645
N      -1.45207599     -1.18826110     -0.35349432
C      -0.93610951      1.31653838     -0.15167747
O       1.06624551     -0.40046647     -1.75639204
H       1.89532617      1.42739723     -0.07018822
H       1.90155416      0.39613319      1.37204346
H       2.97100429      0.03351926      0.00919691
H       1.07925570     -1.51877167     -0.01832084
H      -1.97306209     -0.47395385      1.66932982
H      -0.65828442     -1.73462560      1.58897418
H      -2.34682811     -0.78617485     -0.61396701
H      -0.74175327      1.62755504     -1.17938080
H      -2.00175272      1.43893121      0.05077290
H      -0.39437583      1.99239624      0.51182341
H       0.39976312     -0.98549977     -2.13587254
