14
b3lypvtz=-224614.18446708
N       2.22153101     -0.63690081     -0.70604947
C       1.22423465     -0.90665429      0.02033603
C       0.26345691      0.07909285      0.67188668
N       0.71937541      1.45458957      0.49932076
C      -1.12345999     -0.16244557      0.04211586
N      -1.46898488      0.72572985     -0.92069863
O      -1.81209661     -1.09980078      0.39391769
H       2.31184320      0.37308097     -0.84131632
H       0.98692964     -1.95124871      0.22109125
H       0.14933568     -0.23247795      1.71678601
H       0.11050363      2.09299805      0.99700939
H       1.64801825      1.57032317      0.88946483
H      -0.80191762      1.41440532     -1.22605295
H      -2.31193627      0.56428633     -1.44448712
