14
b3lypvtz=-203686.72983942
C       2.10140533     -0.43951921     -0.55183824
C       0.79662479      0.07799947      0.00228725
C       0.67055751      1.57491596      0.12479212
O       0.27461081     -0.67434483      1.11165129
C      -0.40964101     -0.77270070     -0.13950000
C      -1.73979573     -0.21104825     -0.20840639
N      -2.80276994      0.22165711     -0.29523213
H       2.26648699     -0.06323534     -1.56270314
H       2.92984323     -0.10079409      0.07285696
H       2.11402662     -1.52817273     -0.57510943
H       0.78520761      2.04892792     -0.85138833
H      -0.29321861      1.86132181      0.54002542
H       1.45643966      1.95602606      0.77908399
H      -0.31803625     -1.73087218     -0.64170237
