17
b3lypvtz=-241001.16046746
C      -2.00839538      0.47735842     -0.56719850
C      -0.66343749     -0.18485903     -0.29492426
O      -0.12020366     -0.72056808     -1.50475140
O      -0.90457157     -1.21991304      0.63132452
C       0.38009914      0.81756926      0.22257497
C       1.77013882      0.23322194      0.40933756
O       1.71205651     -0.78334649      1.42905420
H      -2.72629439     -0.28038263     -0.88481607
H      -2.39489107      0.95000237      0.33569544
H      -1.91268673      1.22412850     -1.35414498
H      -0.66852909     -1.47689341     -1.74079579
H      -0.05323850     -1.44768175      1.03671695
H       0.45469412      1.64287108     -0.48829731
H       0.02224744      1.22665656      1.16896023
H       2.46347774      1.02275112      0.71548878
H       2.11742839     -0.19704866     -0.53151087
H       2.53230573     -1.28396617      1.41708653
