12
b3lypvtz=-200480.60430646
C       3.75745894      0.46127821     -0.18586178
C       2.58045830      0.21847395     -0.14467458
C       1.20457059     -0.11672919     -0.02241559
N       0.33512272      0.28124390     -0.87340677
C      -1.00695086     -0.00532241     -0.65058715
N      -1.51198728     -0.10156295      0.51913459
N      -2.83735503     -0.40739160      0.63321582
H       4.79287306      0.68918447     -0.24061156
H       0.92682667     -0.73000944      0.83816159
H      -1.61066162     -0.07588752     -1.55764943
H      -3.41013703     -0.19291959     -0.17899969
H      -3.22041846     -0.02035783      1.48189455
