14
b3lypvtz=-224608.70905159
N       2.42418860     -0.06967780      0.43795305
C       1.02762156     -0.03992522      0.44110492
O       0.50848740     -0.50359414      1.62200771
C       0.26522743      0.34896887     -0.59126162
C      -1.18548582      0.23226851     -0.77947641
N      -1.94835808     -0.19337653      0.29254539
N      -1.65043965      0.58164460     -1.92663489
H       2.82653095      0.20984474     -0.44443878
H       2.83972453      0.45078153      1.20162680
H       1.14526689     -1.12468541      1.99768559
H       0.76662852      0.79409259     -1.43760124
H      -1.48032877     -0.64248188      1.06076690
H      -2.87408095     -0.52474460      0.08192498
H      -2.66498259      0.48088475     -1.95620238
