16
b3lypvtz=-202030.70554945
C      -1.99958735     -1.08293057      0.80894489
C      -1.53710479      0.04236132     -0.05894087
C      -0.26668320      0.38472055     -0.32857750
C       0.08761478      1.53923028     -1.22359670
N       0.75892172     -0.38063998      0.26071388
N       1.91670542     -0.00811301     -0.02876717
N       2.87403829     -0.80444574      0.49222389
H      -2.61885170     -1.78136412      0.23771725
H      -1.16433001     -1.63030790      1.23697200
H      -2.62777737     -0.70959327      1.62345358
H      -2.31399790      0.64316279     -0.51923017
H       0.69152807      2.27807979     -0.69318974
H       0.68432678      1.20741110     -2.07533596
H      -0.81498341      2.02283918     -1.59282310
H       2.57579801     -1.39273646      1.26476519
H       3.75438265     -0.32767396      0.59567053
