12
b3lypvtz=-223858.29815121
C       2.45494867     -0.48803568      0.00004161
C       1.02709929     -0.05437673      0.00010789
N       0.66452957      1.21227078     -0.00008543
N      -0.70342620      1.12755672      0.00001901
H      -1.27794884      1.95175751     -0.00001263
C      -1.06688864     -0.16165366      0.00003985
O      -2.35549825     -0.52476195      0.00007737
N      -0.01762005     -0.94661758     -0.00019828
H       2.50764424     -1.57416433      0.00003470
H       2.97707014     -0.11043284     -0.87985662
H       2.97709219     -0.11044478      0.87993126
H      -2.37906812     -1.49002944      0.00000528
