18
b3lypvtz=-181905.89230967
C       2.71505918      0.01504220      0.03603215
C       1.36786018     -0.64686412     -0.25654669
C       0.19318974      0.06109243      0.40439339
C      -0.27250680      1.45788982     -0.11694873
C      -1.75203417      0.97272722     -0.07561479
C      -1.22613074     -0.43890969      0.10999299
N      -1.78554686     -1.55248377     -0.07200602
H       3.53064185     -0.51539199     -0.45772344
H       2.92460615      0.02481014      1.10790595
H       2.73331003      1.04906323     -0.31371251
H       1.19907702     -0.68298542     -1.33696339
H       1.39336816     -1.68704105      0.08301502
H       0.34601832      0.09885686      1.48874257
H      -0.02362316      2.31738669      0.50156035
H       0.06965164      1.64388933     -1.13514381
H      -2.37199842      1.14198013     -0.95498744
H      -2.29217707      1.32735272      0.80432915
H      -1.13180904     -2.32387572      0.07646125
