15
b3lypvtz=-216922.10840773
C       1.87113139     -1.06095869     -0.33993939
C       1.28898095      0.28646471      0.00643988
O       1.92631276      1.31496251     -0.04666886
C      -0.14481147      0.34124776      0.45323221
O      -0.79897261     -0.88862817      0.79352384
C      -1.23896459     -0.20203932     -0.37661847
C      -2.61965303      0.38868460     -0.35323916
H       2.87262005     -0.92862019     -0.74045298
H       1.24573923     -1.59558280     -1.05647202
H       1.90623117     -1.68120940      0.55823562
H      -0.36789339      1.18725701      1.09594431
H      -0.95890214     -0.69995266     -1.30233600
H      -2.72963893      1.13035139     -1.14658509
H      -2.82026429      0.86718860      0.60465910
H      -3.36775511     -0.38985635     -0.51328900
