17
b3lypvtz=-194386.43245273
C       1.50044498     -1.62284930     -0.00000186
C       0.35438418     -0.66635804     -0.00000005
C       0.35439198      0.66635472      0.00000040
C       1.50046389      1.62283263     -0.00000012
C      -1.06506420      1.16418701      0.00000404
O      -1.88910877      0.00001157     -0.00000233
C      -1.06507786     -1.16417355      0.00000370
H       2.46296645     -1.11358831     -0.00000147
H       1.46653263     -2.27613695      0.87704076
H       1.46653191     -2.27613476     -0.87704608
H       2.46297950      1.11356057     -0.00001005
H       1.46656437      2.27611343      0.87704814
H       1.46655294      2.27612576     -0.87703870
H      -1.28875689      1.77757784      0.88386125
H      -1.28875929      1.77758730     -0.88384569
H      -1.28877741     -1.77756174      0.88386102
H      -1.28878042     -1.77757120     -0.88384595
