18
b3lypvtz=-205197.125684
C      -2.62092154     -0.27314925     -0.14517316
O      -1.36589072     -0.56507048      0.43653516
C      -0.28123942      0.02227879     -0.24029411
C       0.03306896      1.52920644     -0.04443698
C       1.53284959      1.13240767      0.00750235
C       1.09654856     -0.31411634      0.34292307
N       1.82881722     -1.40260827     -0.28863966
H      -2.66947975     -0.61627592     -1.18622280
H      -3.37755877     -0.79768971      0.43579860
H      -2.84049472      0.80059692     -0.12309112
H      -0.30762658     -0.23509894     -1.30673150
H      -0.32949112      1.87461759      0.92399774
H      -0.28215633      2.22668825     -0.81814131
H       1.99845095      1.17051130     -0.97704421
H       2.16816033      1.64661495      0.72629315
H       0.98164877     -0.41764424      1.42996286
H       1.38015065     -2.28830357     -0.07847733
H       2.76760790     -1.46260820      0.09118225
