15
b3lypvtz=-214531.42930883
C       1.36457788     -0.62438136     -0.20203094
C       0.08448710     -0.45727762      0.56702641
C      -1.08816791     -0.01505600      0.07197008
N      -1.28567382      0.51730269     -1.20172549
N      -2.28757481     -0.05574083      0.79109524
C       2.31545150      0.51621469      0.10011815
O       3.39362760      0.39638976      0.62280332
H       1.86898682     -1.55922232      0.05039715
H       1.17914122     -0.63193391     -1.28302616
H       0.12305525     -0.70141284      1.62080695
H      -2.12106582      0.17326818     -1.65465463
H      -0.48482887      0.48084938     -1.81105496
H      -2.17557818     -0.37130330      1.74223154
H      -2.80744136      0.81076468      0.74944302
H       1.92100337      1.52153881     -0.16339969
