12
b3lypvtz=-257138.32817796
C      -2.41128414     -0.44780715     -0.19552757
N      -1.41331643     -0.31694273      0.56857269
C      -0.30465392      0.43641441      0.15974947
C      -0.34487959      1.70802950     -0.23224162
C       0.98573347     -0.32045182      0.34944312
F       1.01852411     -1.39384335     -0.50402829
F       2.06890829      0.45304416      0.06355058
H      -3.28083909     -0.99443180      0.15947064
H      -2.44346216     -0.03750996     -1.20910533
H       0.56414101      2.24826566     -0.44626744
H      -1.28414054      2.23900823     -0.29683776
H       1.09090099     -0.70489415      1.36554452
