14
b3lypvtz=-203692.67048416
C       3.45170086     -0.30222429      0.00016840
C       2.01419118     -0.08928675     -0.00068847
C       0.82641519      0.09934046     -0.00119717
C      -0.59774367      0.40265127     -0.00271534
O      -1.02019924      1.54671593     -0.00778068
N      -1.39367657     -0.70476581      0.00189698
C      -2.84136584     -0.63143272      0.00100961
H       3.98621006      0.64656346     -0.07072245
H       3.75428206     -0.92586512     -0.84327147
H       3.77002052     -0.80216045      0.91709318
H      -0.94213766     -1.60305644      0.00606818
H      -3.11932496      0.41897805     -0.00410948
H      -3.25973747     -1.11378877     -0.88473991
H      -3.26045646     -1.10529481      0.89099661
