16
b3lypvtz=-181154.74451237
C       1.34378774      1.84666341     -0.26563733
C       0.24406311      1.30675120      0.23936839
C      -0.02163314     -0.16998236      0.43759429
C       1.16049717     -0.98577776      0.15358735
N       2.07910030     -1.63571475     -0.08606389
C      -1.22871846     -0.69091280     -0.39277354
C      -2.55856517     -0.04185510     -0.01628088
H       1.43442186      2.91899877     -0.37369706
H       2.18764429      1.24651713     -0.58152348
H      -0.57082906      1.94853104      0.55292238
H      -0.26220913     -0.32888758      1.49581141
H      -1.01305223     -0.53032078     -1.45042326
H      -1.29485542     -1.77000702     -0.24453196
H      -3.37283935     -0.50326685     -0.57558578
H      -2.57425906      1.02490918     -0.23951255
H      -2.77610345     -0.16792972      1.04669592
