15
b3lypvtz=-214512.71360032
C      -2.05501363     -1.16363481      0.32426497
N      -1.04329426     -0.94507669     -0.39559264
C       0.04953760     -0.18567341      0.17000248
C      -0.21268662      1.32135821      0.04209911
O      -1.30651103      1.81834663      0.05695177
C       1.37368320     -0.56836238     -0.50532950
N       2.49657225      0.04594329      0.20410169
H      -2.90246706     -1.69649328     -0.10103990
H      -2.13809775     -0.85068463      1.37087378
H       0.15160195     -0.35730824      1.25573981
H       0.70543206      1.92960987     -0.04272674
H       1.36478467     -0.19540794     -1.53188050
H       1.41827948     -1.66105974     -0.57080482
H       3.34127007      0.00361314     -0.35106204
H       2.68805606     -0.44439603      1.07002054
