11
b3lypvtz=-213006.07816901
N       3.18808513     -0.38647273      0.53621193
C       2.04196771     -0.53073879      0.49013307
C       0.63696565     -0.63038791      0.38839525
C      -0.07673995      0.33379229     -0.23189171
O       0.46134036      1.42669896     -0.80141684
C      -1.55349586      0.31744962     -0.39163721
N      -2.39602704     -0.43560481      0.17736100
H       0.14824689     -1.49939745      0.80175443
H       1.42539050      1.42481752     -0.70647354
H      -1.91844952      1.07061894     -1.08956959
H      -1.95718387     -1.09077564      0.82713320
