20
b3lypvtz=-210988.31161009
C      -1.14139932     -0.82985239     -1.25684822
C      -0.89423806      0.02193609     -0.00000019
C      -1.87867137      1.20299876     -0.00000427
C      -1.14140021     -0.82984438      1.25685309
C       0.53893113      0.60581220     -0.00000154
C       1.67726792     -0.39712959      0.00000156
F       2.89432603      0.29528062     -0.00000023
H      -0.51088530     -1.72010939     -1.27984365
H      -2.17962228     -1.16612408     -1.29253370
H      -0.94664023     -0.25672927     -2.16606099
H      -1.74062959      1.83119861      0.88248111
H      -1.74062910      1.83119291     -0.88249363
H      -2.91140569      0.84817523     -0.00000342
H      -0.94664194     -0.25671545      2.16606236
H      -2.17962316     -1.16611599      1.29253990
H      -0.51088609     -1.72010116      1.27985473
H       0.66048656      1.24776997     -0.87689510
H       0.66048616      1.24777499      0.87688839
H       1.67238761     -1.03105727      0.88797856
H       1.67238792     -1.03106240     -0.88797177
