14
b3lypvtz=-180389.68252706
C      -0.75917601      1.98554411      0.14538680
C      -1.32700915      0.82660337     -0.18931127
C      -0.78855441     -0.50994081      0.05623786
C      -1.46096414     -1.60224680     -0.31779611
C       0.54275252     -0.65007544      0.77660749
C       1.69313065     -0.21229150     -0.01503600
N       2.60597152      0.11978787     -0.63124530
H       0.20359054      2.04942643      0.63439549
H      -1.24413855      2.92500977     -0.08002665
H      -2.28737773      0.84254912     -0.69390689
H      -2.41750611     -1.52467102     -0.81757670
H      -1.08029970     -2.59899303     -0.14109495
H       0.70255583     -1.69280598      1.05185184
H       0.53295473     -0.07271009      1.70500039
