17
b3lypvtz=-191924.14042272
C       2.20302550     -0.03767535      0.77209287
N       1.36310354      0.03108951     -0.41914022
C       0.01131825      0.46642414     -0.15613347
C      -1.03089251      0.26350609     -1.29090866
C      -2.13902154      0.30634692     -0.21685594
C      -1.01650901     -0.61608486      0.30415531
N      -0.99047881     -1.24379795     -1.08024076
H       3.22061802     -0.30395351      0.48654602
H       2.23872176      0.90134116      1.34476434
H       1.83209748     -0.81810305      1.43829511
H       1.79051504      0.63800746     -1.10786594
H      -0.04615047      1.42442560      0.38353621
H      -1.03708137      0.70820842     -2.28585202
H      -2.29810743      1.24941852      0.30381792
H      -3.06211228     -0.19845687     -0.48686819
H      -1.00689171     -1.21825347      1.21152063
H      -0.03215446     -1.55244277     -1.25827720
