15
b3lypvtz=-191204.01214436
C      -0.89578734     -0.59536435     -0.78866009
C      -1.98512618      0.14993581     -0.06064453
N      -1.61663546      1.02040991      0.78671373
C      -0.14945491      1.05931085      0.81751052
C       0.33759247     -0.12446306     -0.02608259
C       1.72850878     -0.26042547     -0.50022758
N       1.20648527     -1.16163055      0.54563790
H      -1.01223968     -1.67958178     -0.74357503
H      -0.87637834     -0.31173176     -1.84621700
H      -3.04220275     -0.02440406     -0.24403470
H       0.17930283      2.02272474      0.41615802
H       0.20001828      1.00959327      1.85242378
H       1.93745256     -0.73837799     -1.45009796
H       2.44085200      0.50687728     -0.21672756
H       1.54771246     -0.87287283      1.45772309
