13
b3lypvtz=-216133.74828206
C      -2.87915985      0.87786528     -0.07732644
C      -1.91001704      0.24788041     -0.39482567
C      -0.72929331     -0.51606340     -0.79725720
C       0.42328746     -0.39300873      0.15702042
C       1.59111900      0.16380460     -0.15853994
O       2.62138123      0.12716436      0.77309308
O       0.18176544     -0.93915083      1.38147517
H      -3.73660889      1.43249692      0.21080218
H      -1.00270352     -1.57299168     -0.88540472
H      -0.40395147     -0.19080332     -1.78742474
H       1.79857911      0.58672344     -1.13107237
H       3.07267594      0.97620631      0.78925677
H       0.97292589     -0.80012335      1.92020347
