13
b3lypvtz=-211327.5699573
C      -1.16689149     -1.18147382     -1.17425106
C      -0.51453941     -0.32016353     -0.38596238
C      -1.22652389      0.67867009      0.45318366
N      -2.48404268      0.62232803      0.62460970
N       0.89896375     -0.37363395     -0.40620755
N       1.47151018      0.35089747      0.43517452
N       2.81127586      0.31857749      0.33647712
H      -2.24572600     -1.18095995     -1.20138806
H      -0.61624423     -1.88261624     -1.78430973
H      -0.59494680      1.44930497      0.89392259
H      -2.80270000      1.39786672      1.20358479
H       3.27373557      0.58535356      1.18927560
H       3.19612913     -0.46415083     -0.18410922
