16
b3lypvtz=-204460.86683536
C       1.77161536     -0.05873709     -0.88154044
C       1.03721154      0.04947224      0.45860437
C       0.15069167      1.30120335      0.54628832
N      -1.11468255      1.18005918     -0.17667271
C      -1.53070139      0.02806183     -0.47518271
O      -0.98206258     -1.18132014     -0.19019998
C       0.13771304     -1.15534485      0.71676347
H       2.38649076     -0.96008252     -0.91980371
H       1.07414271     -0.09549908     -1.71903729
H       2.42687475      0.80035327     -1.03265284
H       1.77940221      0.08340537      1.26154468
H       0.67628095      2.17102291      0.14663969
H      -0.07631527      1.53607398      1.59054905
H      -2.44319579     -0.10480920     -1.04894651
H       0.65680384     -2.10048001      0.56521244
H      -0.25473325     -1.13320827      1.73725417
