10
b3lypvtz=-220632.440062
C       2.40023031     -0.30040005      0.00000382
N       1.52587058      0.62077915      0.00007591
N       0.20657446      0.22976782      0.00003512
C      -0.84877870      1.06804685      0.00017062
N      -1.94755968      0.36040755     -0.00003001
N      -1.54311742     -0.94592181     -0.00001996
N      -0.26328920     -1.03987250      0.00004426
H       3.43268924      0.02399532      0.00012153
H       2.16423729     -1.35978087      0.00001651
H      -0.75499188      2.13888053      0.00020620
