15
b3lypvtz=-240223.71278802
C      -0.19830457      0.23517283      1.57492916
C       0.10127181     -0.10057690      0.32632523
C       1.51065177     -0.08892797     -0.22102166
O       2.48269153      0.45714561      0.65292154
C      -0.94448425     -0.51789357     -0.68432054
O      -1.06396257      0.43352500     -1.73397076
O      -2.17625106     -0.72187847     -0.03937423
H       0.57878803      0.53149257      2.26596501
H      -1.21535107      0.19585630      1.93492167
H       1.51561253      0.42042453     -1.19149450
H       1.82994072     -1.11812735     -0.41021290
H       2.29564851      1.39440689      0.76668541
H      -0.62373623     -1.42994488     -1.20070355
H      -1.27716949      1.28241865     -1.32612105
H      -2.81544565     -0.97299324     -0.71442883
