22
b3lypvtz=-183440.14843644
C       3.82055354     -0.33895892     -0.01020773
C       2.54233456      0.49826301      0.02455443
C       1.26581210     -0.34355383     -0.01776249
C      -0.01891681      0.48592788      0.01773251
C      -1.29227514     -0.35923539     -0.02915502
C      -2.57202335      0.46950341      0.01674240
N      -3.75531298     -0.39208603     -0.08686755
H       3.87266133     -0.94207918     -0.91950233
H       4.71169617      0.29026508      0.02117796
H       3.86770103     -1.02268323      0.84050101
H       2.54097285      1.19621136     -0.81866724
H       2.53622412      1.11624102      0.92803792
H       1.27182835     -0.96186734     -0.92196129
H       1.26800663     -1.04299982      0.82557209
H      -0.01869115      1.18519729     -0.82562298
H      -0.02325382      1.10362902      0.92246253
H      -1.30697149     -0.96912028     -0.93632313
H      -1.29181473     -1.06137748      0.81289499
H      -2.56255801      1.09536516      0.92190054
H      -2.58714181      1.15487432     -0.83514223
H      -3.82301907     -0.99169280      0.72827420
H      -4.60072433      0.16615073     -0.10220658
