19
b3lypvtz=-218442.28196061
C      -3.30739008      0.18188138      0.07303555
O      -2.10237573     -0.48362240     -0.23678280
C      -0.95199194      0.23001042      0.17933991
C       0.27900394     -0.56461393     -0.22691901
C       1.59633904     -0.02394434      0.33543263
C       1.96086506      1.36162452     -0.17269057
O       2.68441950     -0.87808330     -0.03330102
H      -3.41988355      0.33174538      1.15465344
H      -4.12502381     -0.44230827     -0.28351808
H      -3.36670355      1.16109778     -0.41918067
H      -0.97481443      0.37425335      1.27031963
H      -0.94676062      1.22735952     -0.28013569
H       0.34635204     -0.61001995     -1.31627845
H       0.13920240     -1.59082879      0.12748084
H       1.52145694      0.01256419      1.43148406
H       1.23587875      2.10787097      0.15374055
H       2.94139618      1.64854710      0.20674693
H       2.00142354      1.36705148     -1.26343528
H       2.47827031     -1.77544012      0.24653503
