17
b3lypvtz=-171048.68077826
C      -2.82917736      0.20502999     -0.30251313
C      -1.71302373     -0.23843042     -0.26038099
C      -0.38540265     -0.77666119     -0.22360642
C       0.37633775     -0.88408629      1.09083851
C       0.83974788      0.09411604      0.05430480
C       2.09171911     -0.24113846     -0.72895244
C       0.64270072      1.57083142      0.31605318
H      -3.81527310      0.59485658     -0.33931761
H      -0.22086073     -1.58707458     -0.92397403
H       0.95120116     -1.78599194      1.25377726
H      -0.11997275     -0.49814289      1.97034635
H       2.08830813      0.25375103     -1.70294950
H       2.18543732     -1.31491099     -0.89810435
H       2.98319113      0.09025957     -0.19032041
H       0.60804136      2.13115196     -0.62107351
H      -0.28395288      1.76639216      0.85335139
H       1.47146364      1.96341701      0.91021391
