16
b3lypvtz=-181139.38995795
C       1.23930697      0.29703667     -0.70781710
C       1.51923740      0.07450391      0.76185814
N       0.61984949     -0.20084000      1.61217207
C      -0.74524590     -0.29214833      1.06480465
C      -1.03168539      0.92495497      0.14550225
C      -0.26308994      0.13253898     -0.94977775
C      -0.74403032     -1.15619383     -0.22439128
H       1.58722405      1.29417253     -0.99934601
H       1.82293975     -0.41408054     -1.30280806
H       2.54907740      0.15468491      1.11052790
H      -1.43947508     -0.53043509      1.86607074
H      -0.63802637      1.89050760      0.46414162
H      -2.09171965      1.01453177     -0.08923053
H      -0.53608429      0.28037494     -1.99364950
H      -0.09548712     -2.03264437     -0.23307115
H      -1.75279101     -1.43686412     -0.52498599
