15
b3lypvtz=-216888.11302551
C      -2.56384539      0.05698646     -0.12927124
C      -1.20204656      0.34968907      0.31933316
O      -1.93246829     -0.76015193      0.86152524
C       0.00884767      0.00940651     -0.51231218
C       1.19168129     -0.37016605      0.34259939
C       2.56674970     -0.04699937     -0.03983461
O       1.89454815      0.71241036      0.97011621
H      -2.71590554     -0.41938451     -1.09327546
H      -3.39254449      0.66013316      0.22725253
H      -1.06365850      1.16531929      1.02407547
H      -0.23784626     -0.82138344     -1.17909867
H       0.27649829      0.87046366     -1.13080285
H       1.03371438     -1.22344094      0.99691567
H       2.75006473      0.48169760     -0.97055582
H       3.38621081     -0.66457985      0.31333316
