15
b3lypvtz=-240217.73857779
C      -1.35541386      1.09262593     -0.38206091
C      -0.56078921     -0.16087839     -0.04710831
O      -1.11379028     -1.21907836     -0.80251049
O      -0.63414969     -0.45977348      1.33858307
C       0.91256062     -0.00945320     -0.40939844
C       1.99516658     -0.11200394      0.56751111
O       1.68315147     -1.21004117     -0.30475298
H      -1.28685935      1.32383175     -1.44460847
H      -0.98240931      1.93636621      0.19709314
H      -2.40514059      0.93317678     -0.13402021
H      -0.50235222     -1.96411309     -0.72363407
H      -1.52157691     -0.79772692      1.50248090
H       1.08338148      0.54342545     -1.32843819
H       1.74576889     -0.27232250      1.60780578
H       2.94255236      0.37586493      0.36295810
