18
b3lypvtz=-181923.59026057
C       1.90504913     -0.67984662     -0.78827047
C       1.18378645     -0.22742939      0.48479630
C       0.75015176      1.25689133      0.42295291
C      -0.58454995      1.24500971     -0.33906544
C      -1.19899167     -0.11111942     -0.03464986
N      -2.38671385     -0.41170624     -0.35271662
C      -0.15685066     -0.96141096      0.68479385
H       2.17472279     -1.73620651     -0.73056924
H       2.82278141     -0.10883422     -0.94154918
H       1.28084717     -0.54938616     -1.67539446
H       1.84852628     -0.39522208      1.33412099
H       1.50452125      1.89142799     -0.04325112
H       0.59413598      1.63245804      1.43719842
H      -1.26219528      2.05317376     -0.06682285
H      -0.42794489      1.31885448     -1.41825806
H      -2.61039858     -1.37005519     -0.07998797
H      -0.15432134     -1.99134506      0.32407965
H      -0.41843501     -0.99218646      1.74738115
