12
b3lypvtz=-252142.12201892
N       2.66575156     -0.37795444     -0.01907834
C       1.43271519     -0.70536205     -0.04408663
C       0.29633117      0.18285398      0.00843476
F       0.57536090      1.52363968      0.05723459
C      -1.00877972     -0.15472190      0.00854591
N      -2.05291121      0.74231505     -0.12220548
O      -1.37341459     -1.45998691      0.11345255
H       2.76208859      0.63691729      0.05126747
H       1.17578648     -1.76101691     -0.11320718
H      -1.75470983      1.70489474     -0.18170096
H      -2.79324533      0.61707471      0.55591945
H      -2.14961420     -1.60416023     -0.44374114
