18
b3lypvtz=-228519.14402051
C      -0.04470834      1.72588227     -0.16223688
C      -0.06826824      0.24959453      0.22670048
N      -0.77169538      0.04503711      1.51206168
C      -0.75430977     -0.56847430     -0.88437518
O      -0.99702156     -1.91738217     -0.51211390
C       1.37988041     -0.24583971      0.43049681
O       1.40722531     -1.55589946      0.99240061
H       0.39602332      2.32719446      0.63538525
H      -1.05441036      2.09534164     -0.35082341
H       0.54699067      1.88811059     -1.06522281
H      -1.23328811      0.88758738      1.82566399
H      -1.46999141     -0.68252048      1.41287799
H      -0.15088733     -0.51361307     -1.79987254
H      -1.73214491     -0.13473835     -1.10494553
H      -0.16281855     -2.27102964     -0.17012739
H       1.91343964     -0.30238576     -0.51951880
H       1.91251778      0.45602226      1.08196565
H       0.88326683     -1.48288727      1.80408396
