14
b3lypvtz=-226984.98518909
O       3.35756143     -0.31074514      0.45011931
C       2.18633925     -0.09595093     -0.18354742
N       1.08215024     -0.07092890      0.41887529
C      -0.10606977      0.15817773     -0.32888577
C      -1.21212537      0.97214382      0.31783710
C      -1.36689730     -0.50855245      0.12371050
O      -2.20437433     -0.99297296     -0.89146720
H       3.15271973     -0.43178292      1.38906052
H       2.34049352      0.04658150     -1.25396893
H      -0.01311381      0.26473629     -1.40740574
H      -1.78026206      1.62334624     -0.33200376
H      -1.03402600      1.34012982      1.31831540
H      -1.28371935     -1.13982715      1.00211788
H      -3.11847618     -0.85445495     -0.62275718
