15
b3lypvtz=-216918.57912502
C      -2.33237690     -0.78130904      0.54020326
C      -1.16109629     -0.74327151     -0.09191136
C      -0.34073493      0.46594476     -0.28319345
C      -0.84265313      1.65519683     -0.61092963
C       1.15003272      0.29609775     -0.07361031
O       1.58228220     -0.75460356     -0.91676375
O       1.47917660      0.03644399      1.27537031
H      -2.89302829     -1.70256881      0.62744337
H      -2.76508240      0.10292005      0.99154386
H      -0.73862340     -1.65979651     -0.48969829
H      -1.90101527      1.79463992     -0.78465756
H      -0.20447312      2.52165729     -0.72738271
H       1.67370911      1.22497266     -0.31062594
H       2.51700992     -0.90262854     -0.73540679
H       0.90864319     -0.67360928      1.59521799
