16
b3lypvtz=-227755.61407449
C       2.76596247     -0.43519698     -0.24887071
N       1.31769661     -0.31429181     -0.32577029
C       0.73826069      0.51195659      0.71833420
C      -0.76807443      0.62150761      0.50848676
O      -1.05624457      1.31040272     -0.68672535
C      -1.41144746     -0.75061829      0.48798783
O      -2.18859796     -1.07812326     -0.37400028
H       3.12885110     -1.01737463     -1.09564372
H       3.04390652     -0.96881170      0.66257158
H       3.29335069      0.53118627     -0.24318235
H       1.04489919      0.06784862     -1.22337097
H       0.92530791      0.04335202      1.69022407
H       1.16123401      1.52780531      0.76615065
H      -1.19866095      1.15439116      1.37242165
H      -1.73226782      0.78511440     -1.14378345
H      -1.15477899     -1.42489102      1.32484438
