18
b3lypvtz=-205201.09901124
C      -1.69010848      1.14000859      0.42719282
C      -0.89095180      0.23714003     -0.50986387
C       0.29341659     -0.39284826      0.20470243
C       1.48527009     -0.91326809     -0.57383461
C       1.60631269      0.30355650      0.30519669
O       2.27719583      0.21021877      1.53483017
N      -1.80223668     -0.73557958     -1.12981513
H      -1.05679850      1.91427511      0.86089951
H      -2.51189371      1.61329244     -0.10956268
H      -2.11411809      0.55901350      1.25092729
H      -0.49935106      0.85409641     -1.32619183
H       0.03589218     -0.97460374      1.08395780
H       1.95441704     -1.82223725     -0.22317743
H       1.50429443     -0.77255873     -1.64788862
H       1.69953881      1.26743057     -0.18876362
H       3.22443112      0.19146611      1.36361999
H      -2.23570713     -1.30555810     -0.40996938
H      -1.27960332     -1.37384428     -1.72008657
