16
b3lypvtz=-202037.80190348
N       2.87461906      0.59180796      0.50449928
C       1.86286331     -0.14444815     -0.05147944
N       0.69486638     -0.19680302      0.43736450
C      -0.26188682     -1.09521336     -0.17595475
C      -1.60834058     -0.43258014     -0.40837836
C      -2.15032832      0.56805449      0.53306732
N      -1.69239107      0.97498788     -0.81224666
H       2.60798309      1.25517598      1.21468651
H       3.64253981      0.86124299     -0.08505778
H       2.17282186     -0.72047662     -0.93229597
H       0.10715436     -1.49434088     -1.13402763
H      -0.41978816     -1.95602151      0.48443192
H      -2.31240931     -1.07408247     -0.92886807
H      -3.21913208      0.63855152      0.69232389
H      -1.53022950      0.83603354      1.37850963
H      -0.76834204      1.38831177     -0.71657440
