13
b3lypvtz=-239665.86332907
C      -2.32083358      0.36157826      0.41024991
C      -1.10217580     -0.39355687      0.00135340
N       0.04674531      0.15222995      0.01756973
N       1.11555866     -0.58962062     -0.36597234
C       2.37165356     -0.02880721     -0.36006767
N       2.77879033      1.11017112     -0.05347457
F       3.24214595     -0.96952153     -0.77909217
H      -3.04632952      0.39890938     -0.40673142
H      -2.81676709     -0.12890545      1.25209591
H      -2.05879779      1.37784590      0.69740266
H      -1.22688588     -1.43524720     -0.31407907
H       1.01232000     -1.55336170     -0.65891138
H       2.00457586      1.69828599      0.24004582
