12
b3lypvtz=-223842.61197058
C       2.40997372     -0.46507827      0.00000301
C       1.01416435      0.02166781      0.00000111
N       0.60768564      1.23500199     -0.00000191
N      -0.77105647      1.11769556     -0.00001012
H      -1.34457476      1.93914824      0.00002983
C      -1.18959423     -0.19144714     -0.00000087
N      -2.30455731     -0.78220778      0.00000564
O       0.00431120     -0.90170727     -0.00000569
H       3.08655730      0.38553733      0.00000800
H       2.60151684     -1.07992966      0.88094189
H       2.60152229     -1.07992315     -0.88093926
H      -3.08049260     -0.12903265      0.00000639
