15
b3lypvtz=-216917.11212083
C      -1.84970020     -0.64445069     -0.00480374
C      -0.53610442     -0.09944323      0.49783935
C       0.75689996     -0.36414611     -0.28736491
C       0.16977415      1.02481983     -0.17148504
O       0.89941555      1.95556395      0.58020152
C       1.97303011     -0.73363270      0.46705716
O       2.78488833     -1.53755585      0.07494330
H      -1.95723960     -1.70260436      0.23966895
H      -1.92971062     -0.54570155     -1.08843670
H      -2.69116343     -0.11022726      0.44184617
H      -0.39748056     -0.12686245      1.57360256
H       0.66541912     -0.85839080     -1.24557824
H      -0.26458695      1.41922252     -1.08631602
H       0.28053390      2.55371824      1.01159668
H       2.09602465     -0.23030953      1.44451665
