17
b3lypvtz=-191972.38156895
C       2.03378026      1.51901375      0.12652846
N       1.81944060      0.45515782     -0.51406031
C       1.58975516     -0.76648444      0.23710694
C       0.22633321     -1.37054675     -0.11026696
N      -0.85155450     -0.56872372      0.43827163
C      -1.70903711     -0.08812093     -0.35418919
C      -2.85211843      0.75509528      0.11311010
H       2.06324273      1.57019269      1.22194822
H       2.20380432      2.44580957     -0.41813780
H       2.36160848     -1.48257514     -0.05680199
H       1.65356932     -0.61135087      1.32226706
H       0.17252782     -2.36132789      0.34879733
H       0.15179889     -1.49047264     -1.19953149
H      -1.65225350     -0.27376378     -1.43705972
H      -2.81749560      0.88014035      1.19343064
H      -3.80435527      0.29665035     -0.16766200
H      -2.82298340      1.73695633     -0.36708991
