16
b3lypvtz=-225387.59694058
C      -1.74028226      0.57281457     -0.01770055
C      -0.36155117      0.60849488      0.62760542
N       0.60538079     -0.01314794     -0.25837835
C       1.94860716      0.08184888      0.00419399
O       2.41798690      0.81034173      0.86184920
N       2.74182245     -0.74233200     -0.78704343
N      -2.11193695     -0.81210172     -0.34044672
H      -2.45286855      1.07926338      0.64508422
H      -1.70803043      1.13363621     -0.95374931
H      -0.05519773      1.63555055      0.81935492
H      -0.39255400      0.10230864      1.60177427
H       0.25943608     -0.84015645     -0.72237577
H       3.71760421     -0.49687955     -0.74559184
H       2.40931415     -0.95870776     -1.71321926
H      -2.34997740     -1.32261000      0.50269069
H      -2.92775325     -0.83832343     -0.93885266
