15
b3lypvtz=-216925.69840198
O       2.53118291     -0.02466512     -0.20229191
C       1.17544749     -0.00840622     -0.02242732
C       0.43470655     -1.00546914      0.45442633
C      -1.06154322     -0.87217426      0.55766060
C      -1.54148442      0.30867058     -0.27999075
O      -0.75410594      1.46808889     -0.03090639
C       0.58874850      1.30991218     -0.44291628
H       2.87191333     -0.89744389      0.02352855
H       0.90269377     -1.92993754      0.77772107
H      -1.55217840     -1.78412895      0.20347194
H      -1.36971384     -0.73894274      1.60034650
H      -2.56655709      0.58384244     -0.03458947
H      -1.49978425      0.05245588     -1.34753339
H       0.68185084      1.41748713     -1.53436990
H       1.15882377      2.12071078      0.01387043
