19
b3lypvtz=-192737.3719617
C       0.68238528      1.65560256     -0.15131887
C       0.48366055      0.16448237     -0.15430766
C      -0.65145513     -0.47215867      0.14648618
C      -1.97770129      0.11057711      0.53380003
N      -3.04378285     -0.48259670     -0.29059315
C       1.71060970     -0.63772460     -0.52631605
N       2.78813942     -0.43817065      0.45623430
H       0.95364529      2.00331293     -1.15337559
H       1.51576816      1.91643059      0.50255494
H      -0.19779198      2.20599375      0.17196388
H      -0.65642019     -1.55783159      0.09804796
H      -1.95241552      1.20477162      0.49703976
H      -2.19278527     -0.16193820      1.57271498
H      -3.95089694     -0.14851168      0.01337702
H      -2.93329179     -0.19477154     -1.25631099
H       1.42559231     -1.68845117     -0.65984505
H       2.08966904     -0.28279703     -1.49040208
H       3.64769378     -0.86425217      0.13131541
H       2.54530343     -0.89123694      1.32993596
