10
b3lypvtz=-228046.90562262
C       2.66703319      0.28435598     -0.47180048
C       1.49506071      0.05299263     -0.35406366
C       0.10202042     -0.27200917     -0.20418682
N      -0.33422535     -1.43930653      0.05804659
N      -0.75182622      0.85025328     -0.37857630
C      -1.98461113      0.67314203     -0.26773318
F      -2.80885194      1.70399580     -0.42555598
H       3.70172159      0.49834836     -0.57773370
H       0.43081658     -2.10359025      0.14577098
H      -2.51713785     -0.24818214     -0.04936960
