17
b3lypvtz=-191958.86547296
C       3.18540091     -0.00004697      0.21575474
N       1.91730661      0.00006459     -0.48461221
C       0.85271780     -0.00014121      0.19480806
C      -0.49924830     -0.00000596     -0.42749066
C      -1.53611908      1.05133472      0.05775814
N      -2.57899964      0.00011087      0.03160976
C      -1.53627731     -1.05127482      0.05756303
H       3.76211116     -0.87636919     -0.08760525
H       3.76200865      0.87650793     -0.08712950
H       3.08691989     -0.00034863      1.30997735
H       0.87596377     -0.00038274      1.29741178
H      -0.40144055      0.00009996     -1.51027908
H      -1.72290247      1.90125591     -0.59992435
H      -1.29611285      1.42469913      1.06108486
H      -3.21834662      0.00008621      0.81631562
H      -1.29631127     -1.42485383      1.06081718
H      -1.72320569     -1.90105999     -0.60025449
