14
b3lypvtz=-226991.16618878
O       2.23747090     -0.85560523      0.69719743
C       1.08727267     -0.69015446     -0.07901260
C       0.97559014      0.73530547     -0.59902860
N      -0.04283672      1.48312521     -0.54985518
C      -1.27150340      0.91833454      0.01096447
C      -1.25554087     -0.59817772      0.09049681
O      -0.04063626     -1.04512910      0.69224533
H       2.14835446     -0.30342504      1.48382357
H       1.20890813     -1.38481972     -0.92222911
H       1.89597062      1.13562652     -1.02645216
H      -1.40990720      1.35596469      1.00386611
H      -2.10785614      1.26443016     -0.60107391
H      -2.06528533     -0.98057517      0.71067674
H      -1.35990098     -1.03490016     -0.91161888
