16
b3lypvtz=-181124.27750924
C      -1.31944402      1.73892782      0.36890327
C      -0.88861493      0.50912601      0.15076394
C      -1.54281857     -0.85275387      0.03337357
C      -0.25927286     -1.34806953     -0.69343215
C       0.47902976     -0.04118038     -0.26164075
N       1.34351626     -0.26669017      0.87976295
C       2.50266169      0.23002052      0.85734485
H      -0.64515047      2.58628272      0.34068895
H      -2.36080819      1.94572881      0.58460435
H      -1.67878558     -1.33285880      1.00399109
H      -2.48328787     -0.90310512     -0.51533609
H      -0.37785085     -1.40513964     -1.77419102
H       0.18730368     -2.26850692     -0.32499096
H       0.98614479      0.51191621     -1.06292907
H       2.89047047      0.82186630      0.01883939
H       3.16690669      0.07443603      1.70458163
