20
b3lypvtz=-182674.99565679
C       2.68602157      0.35398195     -0.27952765
C       1.59567373     -0.57564661      0.24319433
N       0.26387935     -0.20794550     -0.20921055
C      -0.26032905      1.04665552      0.32611917
C      -1.74711509      1.02260192     -0.06213973
C      -2.07979884     -0.48502799     -0.22746917
C      -0.76221673     -1.19954775      0.10177960
H       2.58379550      1.36444740      0.11794302
H       2.64795124      0.41166184     -1.36817540
H       3.67022514     -0.01559943      0.01281420
H       1.64039465     -0.61509575      1.34788783
H       1.79315498     -1.59004754     -0.11157927
H      -0.15144806      1.08446241      1.42602700
H       0.26967947      1.90501775     -0.08552760
H      -2.36384550      1.50538798      0.69529386
H      -1.90678452      1.55494092     -0.99908718
H      -2.38384636     -0.69884760     -1.25154603
H      -2.88756088     -0.80940081      0.42779594
H      -0.73699014     -1.48058682      1.17070562
H      -0.60606148     -2.10939691     -0.48000398
