18
b3lypvtz=-181843.67295066
N       1.96211056     -0.79545719     -0.55756724
C       1.28238777     -0.10446009      0.52890796
C       0.83778797      1.36711775      0.08921410
C      -0.46914678      0.67410706     -0.42240233
C      -2.00831330      0.41928872     -0.30857805
C      -1.57603245     -1.06166392      0.09919044
C      -0.26833253     -0.37224018      0.61599386
H       2.88055267     -0.39600906     -0.71274196
H       2.10109180     -1.77110310     -0.32127811
H       1.80934025     -0.16041441      1.48859880
H       0.69901258      2.00356403      0.96238767
H       1.47220198      1.87007104     -0.64195526
H      -0.17993741      0.22973186     -1.37646141
H      -2.62221765      0.54260024     -1.20091573
H      -2.47816229      0.92512868      0.53523181
H      -1.42187380     -1.67409240     -0.78825994
H      -2.19957756     -1.59549342      0.81658867
H      -0.54701280      0.06359641      1.58211372
