15
b3lypvtz=-214517.61928741
N       0.07331118      2.39650769     -0.10990133
C       0.23358531      1.26249106      0.42356452
C      -0.11507212     -0.08897821     -0.17676378
C      -1.47639029     -0.53125755      0.33172566
O      -2.41045526     -0.80065845     -0.37604640
C       0.93683401     -1.15100268      0.18901838
N       2.26686453     -0.69575924     -0.20679319
H      -0.31409673      2.31218723     -1.05274591
H       0.64370471      1.23421022      1.43521822
H      -0.19510450      0.00373060     -1.26244215
H      -1.56287162     -0.60145286      1.43655763
H       0.93968219     -1.28868067      1.27401132
H       0.63412023     -2.10970755     -0.25208544
H       2.34298221     -0.63690131     -1.21565614
H       2.97794316     -1.34443227      0.10736360
