22
b3lypvtz=-183441.5001546
C       3.33299623     -0.33047280      0.08018101
C       2.00077853      0.23801116     -0.40698711
C       0.78904274     -0.45407339      0.21846924
C      -0.56415714      0.12628794     -0.21037597
N      -0.65737896      1.52123164      0.24462500
C      -1.72436914     -0.77628386      0.24960189
C      -3.10316563     -0.32587389     -0.23102694
H       3.44136507     -0.21280591      1.16099777
H       3.41862619     -1.39668436     -0.14375991
H       4.17727197      0.17474529     -0.39221272
H       1.94702676      1.30612474     -0.19239753
H       1.94157375      0.14180418     -1.49604453
H       0.81005667     -1.51961973     -0.03062672
H       0.86127452     -0.39829163      1.31205159
H      -0.58306559      0.16245285     -1.30605396
H      -0.74020540      1.55455571      1.25604824
H      -1.48043825      1.97418996     -0.13234766
H      -1.71392691     -0.82753809      1.34438687
H      -1.53692277     -1.79420192     -0.10547582
H      -3.36411164      0.66140343      0.15492368
H      -3.88044077     -1.01712215      0.09800785
H      -3.14429020     -0.27877719     -1.32215227
