18
b3lypvtz=-205217.44088907
C      -1.67531521      1.16619132     -0.07763236
C      -0.95029360      0.04378888     -0.01589162
N      -1.52324437     -1.22085563      0.14763367
C       0.58203990      0.05754091     -0.00530409
C       1.10169155     -0.20634169      1.41052856
C       1.16211563     -0.96995179     -0.99461668
O       1.07488784      1.35212375     -0.35396021
H      -2.75736829      1.13231112     -0.08738724
H      -1.20546493      2.13539990     -0.05510575
H      -1.09324271     -1.96808734     -0.37414151
H      -2.52714720     -1.23472378      0.04965714
H       0.73121704     -1.15914119      1.78518929
H       2.19217289     -0.22193059      1.40718975
H       0.76631484      0.58629689      2.07770345
H       2.24192673     -0.83395705     -1.04077580
H       0.75464391     -0.82260411     -1.99738546
H       0.97209226     -2.00089680     -0.69087345
H       0.66095172      1.61477922     -1.18401369
