15
b3lypvtz=-214545.31277396
C       2.46263541     -0.75889493      0.11131515
N       1.61689035      0.41992024      0.04300510
C       0.27671302      0.36253222     -0.07458386
C      -0.42620550      1.69610769     -0.10438246
N      -0.27499767     -0.81157245     -0.17470010
C      -1.64051952     -0.97260819     -0.11784373
O      -2.45962879     -0.24242957      0.40892950
H       2.25446954     -1.34089154      1.00965176
H       2.28686545     -1.40326033     -0.74977246
H       3.50274647     -0.43987042      0.12290408
H       2.05019860      1.32506159      0.06783602
H       0.26580057      2.50154134     -0.35484158
H      -1.24221827      1.68320119     -0.82237692
H      -0.87483661      1.89510251      0.86800972
H      -1.95367005     -1.92156435     -0.58401823
