14
b3lypvtz=-203686.18313434
N      -0.64971073      2.63910613     -1.34970081
C      -0.44673279      1.62928962     -0.83292686
C      -0.16825854      0.37285737     -0.19016046
C       1.32312619      0.09350172     -0.05684081
O       1.49155049     -1.16109622      0.58613106
C      -1.13625416     -0.76867559     -0.43935016
C      -1.12759813     -0.08546452      0.89238808
H       1.77481783      0.08957324     -1.05504099
H       1.78567385      0.89971951      0.52316460
H       2.43128525     -1.34039060      0.67257892
H      -0.69361713     -1.75151305     -0.50003711
H      -1.95981738     -0.58049674     -1.11213734
H      -1.94512219      0.57523098      1.14023048
H      -0.67934254     -0.61184185      1.72160140
