10
b3lypvtz=-223039.75390367
C      -1.31316659      0.11364056      0.11289469
N      -0.61658785     -0.24179564     -0.89146545
C       0.73867296     -0.50260767     -0.71877577
N       1.44610127      0.20529497      0.07236764
O       2.78085551     -0.18528167      0.04579839
C      -2.69122514      0.47547980     -0.04990397
N      -3.80142031      0.77698608     -0.11228728
H      -0.92026651      0.16342138      1.12948832
H       1.16494225     -1.27686941     -1.34928625
H       3.21209444      0.47173160      0.60281143
