17
b3lypvtz=-191951.69346638
C      -2.23763406      0.18506721     -0.24807284
C      -0.74429956      0.14171752     -0.19868967
C       0.16420143     -0.98763238     -0.69725980
C       1.18511666     -0.63106129      0.44011549
C       0.22222779      0.49269842      0.87522156
N       0.08016883      1.37088717     -0.31613005
N       2.53376657     -0.32048573      0.01384461
H      -2.66871452     -0.74537353      0.12710777
H      -2.62993642      1.00565955      0.35706586
H      -2.59215639      0.32571965     -1.27282396
H      -0.26601125     -1.98136326     -0.57602089
H       0.53789899     -0.86949472     -1.71407147
H       1.22411129     -1.42554772      1.18542701
H       0.05148956      0.88787497      1.86872162
H      -0.50117586      2.16014429     -0.04344709
H       3.12848801     -0.12734510      0.81158162
H       2.51245893      0.51853495     -0.55710181
