15
b3lypvtz=-191153.09900004
C       2.33633932     -0.14129884     -0.46321552
N       1.37136690      0.65167424     -0.64597316
C       0.07677853      0.27397922     -0.15703510
C      -0.40318886     -0.00877618      1.28999881
N      -1.69349753     -0.16653017      0.47236837
C      -0.81862559     -0.93631591     -0.52790459
C      -1.21795148      1.09221238     -0.27822785
H       3.32488839      0.12975774     -0.82812115
H       2.24876965     -1.10696672      0.04896856
H      -0.07916416     -0.93075348      1.77233716
H      -0.42508405      0.82853959      1.98638720
H      -1.22994537     -0.96913477     -1.53594008
H      -0.52437919     -1.92508030     -0.17650201
H      -1.66322435      1.20292760     -1.26621770
H      -1.30308221      2.00576561      0.30907704
