14
b3lypvtz=-203681.77098973
C      -1.11466050      1.33081826     -1.13297533
C      -1.07134220      0.33483390     -0.24407509
O      -2.24221333     -0.10434847      0.31664264
C       0.18193561     -0.28839556      0.22325018
C       0.24983629     -1.00322548      1.35434044
C       1.38864802     -0.13680608     -0.63919704
N       2.58517772      0.04264617     -0.26037013
H      -2.06122020      1.75290603     -1.43616805
H      -0.20972058      1.75734642     -1.53470758
H      -2.12493314     -1.00668879      0.63217616
H       1.16430540     -1.50032385      1.64688882
H      -0.59074642     -1.10053935      2.02850602
H       1.20756521     -0.19499726     -1.71289887
H       2.63736813      0.11677405      0.75848783
