19
b3lypvtz=-195138.70429521
C      -2.58007770     -0.23999061     -0.19040486
C      -1.34362473     -0.43758250      0.69046713
C      -0.06964254      0.14534621      0.10154641
C      -0.03935677      1.64941410     -0.03841626
O       0.43472679     -0.59253624     -1.03474158
C       1.16974314     -0.64731187      0.19804554
C       2.57293661     -0.10590555      0.19954429
H      -2.84054200      0.81321575     -0.30252117
H      -3.44428172     -0.74531849      0.24278707
H      -2.41133017     -0.65456686     -1.18497028
H      -1.51130224      0.00826326      1.67601567
H      -1.18742268     -1.50602014      0.85121802
H      -0.86800696      1.99321674     -0.65872777
H       0.88163079      1.99223621     -0.50241668
H      -0.13497147      2.12580438      0.94008191
H       1.07608162     -1.60748260      0.70438061
H       3.24237676     -0.80963222     -0.29929551
H       2.64897194      0.84901260     -0.31550455
H       2.92887534      0.02058782      1.22471100
