15
b3lypvtz=-214504.79234743
N       3.54362084      0.03720093     -0.41678883
N       2.25076109     -0.03671986     -0.83737523
C       1.32479861     -0.08274705      0.04626576
C      -0.06684425     -0.08814433     -0.34552587
C      -1.09262659     -0.14791018      0.51178263
C      -2.53100523     -0.15245278      0.10482482
O      -3.26924142      0.91927791      0.69835540
H       3.73497787     -0.34400988      0.50619704
H       4.17412320     -0.31098901     -1.12138709
H       1.55946864     -0.11524201      1.11642236
H      -0.25022951     -0.04519831     -1.41461487
H      -0.90375493     -0.18269724      1.58133987
H      -3.02718704     -1.05975193      0.45747127
H      -2.61458084     -0.13407800     -0.98803053
H      -2.83228045      1.74346175      0.45986326
