12
b3lypvtz=-249570.81041485
C      -2.07786554      0.18031028      0.26682942
C      -0.81395475     -0.04200368     -0.51119863
O      -0.74297662     -0.29648412     -1.68048197
O       0.26649453      0.09126480      0.32844054
C       1.57282700     -0.05896065     -0.10434298
N       2.04094002     -0.32390177     -1.23554677
O       2.33276663      0.14344539      0.98467154
H      -2.14249565     -0.54098530      1.08179529
H      -2.06715089      1.17443964      0.71432027
H      -2.93128159      0.07574320     -0.39576346
H       1.31527854     -0.44295247     -1.93215463
H       3.24741831      0.04008468      0.68943137
