14
b3lypvtz=-224599.15631172
N      -0.55615093      1.48117977      0.37035630
C      -0.43112333      0.22156161      0.25029311
C      -1.54753221     -0.78244079     -0.00946637
N      -2.89629761     -0.27336693     -0.16674548
N       0.81205495     -0.41330001      0.41147810
C       1.83272554      0.17640985     -0.03445076
O       3.05477099     -0.35052022      0.15787178
H      -1.53291200      1.74720284      0.24416399
H      -1.52691541     -1.50290111      0.81160963
H      -1.27549385     -1.35712912     -0.89929447
H      -2.97504933      0.36383846     -0.94913283
H      -3.21972338      0.20626889      0.66373501
H       1.79596151      1.12024648     -0.58318266
H       3.71553205      0.20587829     -0.26753434
