20
b3lypvtz=-210987.24628726
C      -1.85451027     -1.68785451      0.07194729
C      -1.62019010     -0.27818796     -0.47232426
C      -0.76472384      0.63410127      0.42601340
C      -0.71322626      2.05860451     -0.14148174
C       0.64178722      0.07817908      0.73033615
C       1.53572116     -0.13662792     -0.47641740
F       2.78100260     -0.61138133     -0.04725858
H      -2.54093444     -2.24270304     -0.56945432
H      -0.93041189     -2.26449080      0.13425363
H      -2.29149383     -1.65586513      1.07279944
H      -2.58856083      0.20964302     -0.61590094
H      -1.17244256     -0.33979191     -1.46919148
H      -1.27431535      0.69178627      1.39424055
H      -0.28046852      2.08247768     -1.14391007
H      -0.11794268      2.71793264      0.49324401
H      -1.71642372      2.48264083     -0.21293538
H       0.55892446     -0.87244401      1.26087665
H       1.15371392      0.76612846      1.40811356
H       1.13142950     -0.88121860     -1.16451728
H       1.71913944      0.78776744     -1.02646422
