19
b3lypvtz=-192727.71744606
C      -0.81924480     -1.24431413      1.08791386
C      -0.43398619     -0.03072397      0.22687914
C      -1.47704063      0.18410173     -0.87763862
N      -0.35182670      1.21295210      1.01466264
C       0.92234224     -0.29780070     -0.43204020
C       2.20523439      0.09142397      0.19186269
N       1.70569169      0.79951541     -1.00213496
H      -0.09854858     -1.38759901      1.89578656
H      -0.84210681     -2.16249628      0.49671158
H      -1.80723366     -1.10423617      1.53148057
H      -1.53415672     -0.68760365     -1.52991552
H      -1.21929186      1.04939873     -1.48872945
H      -2.46878313      0.34625176     -0.44814653
H       0.01939021      1.03262677      1.93977689
H      -1.27292392      1.61314423      1.14156637
H       0.92150881     -1.19165725     -1.04873896
H       2.18194314      0.62367534      1.13492692
H       3.08902141     -0.51428394      0.03414716
H       1.28011111      1.66762507     -0.68227014
