16
b3lypvtz=-227753.18373657
C      -2.27898575     -0.05594403     -0.13715914
C      -0.81846842     -0.35354241      0.03289394
N      -0.52468009     -1.72609168      0.12351845
C       0.11455981      0.61317225      0.04859143
O      -0.28819342      1.94991343      0.01615495
C       1.59958506      0.43174483      0.23553065
O       2.13349049     -0.78551106     -0.28532002
H      -2.68899922     -0.64645992     -0.96032837
H      -2.83583537     -0.32831853      0.76575551
H      -2.44669221      0.99885504     -0.33015339
H      -1.20344264     -2.24113513      0.66569857
H       0.42187231     -1.93822708      0.40325712
H       0.23977687      2.42567363     -0.63511119
H       1.86816325      0.43075149      1.29676982
H       2.11251643      1.29634251     -0.21027246
H       1.83944891     -0.87111336     -1.19911587
