14
b3lypvtz=-203673.91474054
C      -2.65387918      0.18751554      0.38971977
C      -1.33520661     -0.00649508     -0.19810569
C      -0.25008221     -0.18203453     -0.68914324
C       1.07736163     -0.41839096     -1.27579693
N       2.19302232     -0.68173122     -0.36760093
C       2.30700219     -0.10426438      0.74921197
O       1.49986021      0.78899737      1.36412595
H      -2.62654429      0.03392001      1.47022787
H      -3.02736464      1.19584837      0.20251575
H      -3.37193897     -0.51998164     -0.02893037
H       1.34490185      0.43478510     -1.90993150
H       1.00406770     -1.27525859     -1.94839246
H       3.17995001     -0.30827649      1.36274846
H       0.65895000      0.85516651      0.87955134
