19
b3lypvtz=-221053.53188833
C      -2.32275484     -0.75622165      0.03923180
C      -1.39539032      0.33008308     -0.51385771
C       0.07480514      0.36190812     -0.01311998
C       0.15230661      0.43563271      1.51450050
N       0.79329315      1.52893495     -0.55016441
C       0.79517746     -0.88879059     -0.52173555
F       2.07934818     -0.99761051      0.00101079
H      -1.96802963     -1.76250543     -0.18769039
H      -2.43633688     -0.67961826      1.12088181
H      -3.31729045     -0.65959412     -0.39951801
H      -1.82292564      1.31063097     -0.28465410
H      -1.37600008      0.26325361     -1.60745705
H      -0.39462526      1.30786965      1.88081306
H       1.19075220      0.52325589      1.82636622
H      -0.27534789     -0.44962015      1.98453797
H       0.68886225      1.58037002     -1.55813815
H       0.40382335      2.38507074     -0.17162540
H       0.25646142     -1.79403229     -0.23836743
H       0.88663223     -0.85569275     -1.61140496
