13
b3lypvtz=-213785.60938071
C      -1.27774757     -0.25941728      0.02271548
C      -0.74575535      1.16778649      0.13683811
O      -1.47785648      2.12149591      0.31948493
N       0.60207224      1.28244194     -0.04544547
C       1.46236788      0.18398072     -0.24744849
C       1.01328883     -1.04875539      0.00275670
N      -0.28707002     -1.23644309      0.46269270
H      -2.16871731     -0.32244525      0.64297065
H      -1.58461023     -0.40248635     -1.02640211
H       0.96900214      2.22066895     -0.03981372
H       2.46316110      0.39946546     -0.57966916
H       1.64472017     -1.91763494     -0.09931142
H      -0.61285541     -2.18865715      0.45063180
