19
b3lypvtz=-171821.56077232
C      -3.51211015      0.54126141     -0.14968637
C      -2.41525589      0.19141952      0.18919726
C      -1.07534668     -0.23560590      0.57524738
C      -0.16941308     -0.54335188     -0.63206852
C       1.21926485     -1.06404214     -0.24279329
C       2.11367905     -0.09020954      0.53734268
C       2.47390673      1.18637972     -0.22421969
H      -4.48374177      0.85079168     -0.44291659
H      -1.15178693     -1.12570560      1.20799485
H      -0.62445972      0.54220191      1.19698553
H      -0.08490051      0.35364016     -1.24862847
H      -0.66694192     -1.29101367     -1.25305382
H       1.74142498     -1.35961601     -1.15793313
H       1.09958565     -1.98003438      0.34470196
H       3.03443256     -0.61603916      0.80372892
H       1.64089867      0.17318380      1.48768056
H       2.95462053      0.95262601     -1.17710408
H       1.59559082      1.79674139     -0.44008601
H       3.16490881      1.80352269      0.35211283
