12
b3lypvtz=-226246.7807787
C      -0.14299097      1.03896595     -0.08177701
C       1.07336631      0.30251016      0.00934310
C       0.78043213     -1.03300103      0.10021418
N      -0.61238788     -1.13476654      0.06646897
C      -1.14969047      0.10314935     -0.04179297
O      -2.50436406      0.20472498     -0.08960910
O       2.29610552      0.91495802      0.00003147
H      -0.24361463      2.10718503     -0.16453840
H       1.40834412     -1.90118543      0.18363695
H      -1.14718221     -1.98221065      0.11374677
H      -2.74184670      1.13335686     -0.16598346
H       2.98382884      0.24631333      0.07025951
