14
b3lypvtz=-224607.81773713
C      -2.36180044     -0.51066890      0.19664817
N      -1.18393302      0.32616842      0.34171994
C      -0.06018470     -0.10622151     -0.02306356
C       1.16323594      0.76999900      0.07935280
N       1.14154791      2.03537493      0.11430408
N       2.37121834      0.06448363      0.02149147
O       0.15292400     -1.35679475     -0.53109773
H      -2.52344961     -1.08031111      1.11635937
H      -2.29342647     -1.22099218     -0.63068872
H      -3.23147364      0.13005626      0.05579443
H       0.17527520      2.35449258      0.06531634
H       3.16514692      0.68566987      0.09950085
H       2.44034860     -0.71086792      0.66755018
H       1.04457097     -1.38038832     -0.90728710
