13
b3lypvtz=-234636.87602491
C      -1.48743171      1.08140834     -0.61878356
N      -0.63214807     -0.02011474     -0.21447153
C      -1.11308696     -1.30194456     -0.08188990
O      -2.21862295     -1.65077154     -0.43672374
N       0.61830475      0.36973428      0.24853773
N       1.47759627     -0.52355535      0.14598035
N       2.65315366     -0.18942972      0.73489050
H      -1.48481325      1.85321893      0.15083203
H      -1.14222049      1.51499290     -1.55821578
H      -2.49001646      0.68588461     -0.75060074
H      -0.38453736     -1.96881336      0.39404983
H       2.77881040      0.80679386      0.89294769
H       3.42501216     -0.65740365      0.28701372
