17
b3lypvtz=-191973.17764629
N      -3.00574120     -0.59696639     -0.23890632
C      -2.33646345      0.46362184     -0.01279941
N      -0.99487953      0.61419984      0.22189786
C      -0.03631100     -0.46990182      0.09138075
C       1.33812323     -0.02283134      0.51611403
C       2.21752379      0.73075569     -0.45148252
C       2.55617935     -0.68373893     -0.06241358
H      -2.41389239     -1.42596404     -0.27106743
H      -2.87426442      1.41130020      0.03317967
H      -0.62403999      1.54814848      0.16630320
H      -0.36438923     -1.30467536      0.71820915
H      -0.00123377     -0.84439732     -0.94089986
H       1.40474594      0.27785620      1.55493059
H       1.83858817      0.89823117     -1.45120409
H       2.83679344      1.53016023     -0.06963003
H       2.40830752     -1.45873225     -0.80248909
H       3.40311854     -0.84796919      0.58845109
