13
b3lypvtz=-213762.10734369
C       2.35833595      0.10255347     -0.28555065
N       1.19391064      0.59074276     -0.29774651
C       0.12399184     -0.19298117      0.24799968
C      -1.07278388      0.62201087      0.81190376
N      -1.90338577      0.01431176     -0.23560563
C      -0.90069922     -0.69576256     -0.82872179
O      -0.84285907     -1.41738004     -1.78478668
H       2.60176944     -0.87271196      0.15137857
H       3.17442941      0.66763885     -0.72844002
H       0.45525082     -1.00869249      0.90095140
H      -1.37478644      0.36578443      1.82770519
H      -0.93976143      1.69800995      0.70888683
H      -2.87351229      0.12637614     -0.48797414
