17
b3lypvtz=-215285.01315439
C      -2.33998431     -0.67070658     -0.73394008
N      -1.75224112     -0.32372252      0.55500447
C      -0.91013755      0.86229769      0.51502835
C       0.50998460      0.59547999      0.01443359
O       1.11464233      1.44688634     -0.59735052
C       1.15467530     -0.73904971      0.37904520
N       2.52640908     -0.92006361     -0.06190920
H      -3.00455752     -1.52587754     -0.61331950
H      -1.55460390     -0.96193664     -1.43503996
H      -2.90652361      0.15088549     -1.19661551
H      -2.47924842     -0.21056106      1.24727840
H      -0.79686087      1.24220119      1.53571812
H      -1.31648553      1.68410545     -0.09117668
H       1.09451984     -0.84453830      1.46809731
H       0.52789603     -1.54650384     -0.00385554
H       2.55811174     -0.93127951     -1.07531461
H       3.07609992     -0.11093784      0.20681615
