12
b3lypvtz=-252115.27001629
C      -1.03918810      1.52031433      0.15029134
C      -0.64129976      0.23887188      0.15046931
C       0.76785142     -0.09893331      0.37089244
N       1.18252462     -1.29112744      0.48233563
O       2.52899732     -1.48074509      0.70000653
F       1.62890575      0.94263309      0.46929878
N      -1.45558538     -0.85834868     -0.08803928
H      -2.07645999      1.77989475     -0.00686547
H      -0.33317852      2.31975084      0.29587172
H       2.95976352     -0.61035582      0.72846078
H      -1.08976561     -1.73925016      0.23727874
H      -2.43256525     -0.72270438      0.11149632
