14
b3lypvtz=-224584.03045313
C       1.65935446     -1.41591539      0.04577081
C       1.16368243      0.00338032     -0.01043580
N       1.89248271      1.04581214     -0.07747005
C      -0.30930938      0.23138652      0.01241253
N      -0.73702643      1.51756983      0.10464119
N      -1.06120165     -0.81480820     -0.04078258
O      -2.42243772     -0.42190197     -0.03715068
H       2.74549551     -1.43775505     -0.03662381
H       1.22104516     -2.01078101     -0.75474583
H       1.36052699     -1.88785690      0.98249534
H       2.88248604      0.80724349     -0.09261469
H      -1.69596865      1.70638985     -0.12640149
H      -0.03728228      2.21956285     -0.07255660
H      -2.88128019     -1.26353048     -0.10825434
