13
b3lypvtz=-192827.86638304
C      -1.24645505     -0.66270633     -0.49811251
C      -1.24647539      0.66266393     -0.49811591
C      -0.00001855      1.06116597      0.32924554
C       1.24645845      0.66270560     -0.49810751
C       1.24647884     -0.66266466     -0.49810841
C       0.00001780     -1.06116551      0.32924805
O      -0.00000298      0.00000131      1.30320116
H      -1.90937446     -1.34862655     -1.00078206
H      -1.90942432      1.34856217     -1.00077525
H      -0.00003596      2.03789620      0.80124878
H       1.90938046      1.34862431     -1.00077469
H       1.90943035     -1.34856441     -1.00076328
H       0.00003282     -2.03789503      0.80125310
