11
b3lypvtz=-241306.75851624
C      -2.78485034     -0.21523299     -0.00011350
N      -1.64451635     -0.78284484     -0.00005416
C      -0.49561498     -0.03136600     -0.00004377
F      -0.63877533      1.31604709     -0.00013319
C       0.73413030     -0.56782464     -0.00000022
C       1.96963188      0.21413926      0.00000975
O       3.07015250     -0.29454727      0.00004247
H      -2.92508758      0.86493733      0.00025459
H      -3.66864807     -0.84475452      0.00018280
H       0.81036749     -1.64483503      0.00003193
H       1.85155649      1.31180761      0.00000029
