14
b3lypvtz=-203678.9095277
C      -1.46330886     -0.25433036      0.78121338
C      -0.89857823      0.84801897     -0.08875088
C      -0.82878505     -0.59871092     -0.54575331
N       0.58189136     -0.94712252     -0.60489744
C       1.28968682      0.16245973     -0.09538021
C       0.52432075      1.23205815      0.14218768
O       2.62512198      0.03079761      0.09756867
H      -2.53934677     -0.35533785      0.82728855
H      -0.93746805     -0.49655706      1.69568556
H      -1.58000821      1.54910817     -0.55070820
H      -1.44357494     -0.99097243     -1.34331379
H       0.81767953     -1.82459715     -0.15642275
H       0.87875236      2.21005398      0.41893368
H       2.97361730     -0.56486833     -0.57765091
