10
b3lypvtz=-223083.67681208
O       1.01478083      0.00027608      0.17923251
C       2.22485965      0.04829051      0.12194216
C       3.06033378      1.25142636      0.12099878
N       4.35022412      1.26399456      0.05870170
N       5.05451991      0.07884221     -0.01435177
C       4.37722848     -1.02036004     -0.01776890
N       3.02213369     -1.09531133      0.04534380
H       2.54867574     -1.98896143      0.03864853
H       2.55053653      2.20609156      0.17723412
H       4.91560727     -1.95878847     -0.07468094
