14
b3lypvtz=-224567.96352485
C       0.51596606      1.85323915     -0.00014220
N       0.63419295      0.39973797      0.00008335
C       1.89593288     -0.19576932      0.00006438
N       2.24146986     -1.41526341     -0.00008153
C      -0.52627442     -0.34074626      0.00014227
N      -1.66729718      0.22995949     -0.00013545
O      -2.69090934     -0.74202423      0.00010632
H       1.51253930      2.28704761      0.00006102
H      -0.02802864      2.19253712     -0.88221263
H      -0.02848840      2.19274399      0.88156035
H       2.68145775      0.55728726      0.00022014
H       1.46329499     -2.07040547     -0.00028476
H      -0.42914283     -1.42051185      0.00049306
H      -3.48790498     -0.20360906     -0.00016232
