15
b3lypvtz=-216931.40635366
C      -0.22992343      1.93973255     -0.11346572
C       0.13732120      0.67735864      0.10901381
C       1.56959858      0.29217192      0.40911614
O       2.10846999     -0.61749325     -0.53665232
C      -0.84161531     -0.45182830      0.08556387
C      -2.31516392     -0.17795449     -0.12079881
O      -0.44315232     -1.59490518      0.23745531
H       0.49696493      2.74229953     -0.10290619
H      -1.25435998      2.22242483     -0.31311027
H       2.19815449      1.18193866      0.38179159
H       1.62203955     -0.12383305      1.42286830
H       1.59513263     -1.43010804     -0.44636314
H      -2.85108113     -1.12290640     -0.09669427
H      -2.48897499      0.31129808     -1.08080161
H      -2.70342928      0.48094750      0.65760932
