12
b3lypvtz=-226235.78820579
N      -0.29011695     -2.14279490     -0.32204041
C      -0.38757943     -0.96152454     -0.79302563
C      -0.17052590      0.31375206     -0.08414928
C      -0.99806152      1.47317196     -0.42983376
O      -1.87385044      1.46672600     -1.26569602
C       0.83473001      0.51282334      0.79842073
O       1.77519659     -0.35735007      1.17199468
H      -0.12805058     -2.13413916      0.68808695
H      -0.66084161     -0.86420276     -1.84318464
H      -0.76367124      2.39631778      0.14051111
H       0.97389454      1.47764985      1.27235010
H       1.68887653     -1.18042957      0.66656616
