16
b3lypvtz=-225356.12195643
N      -1.54453333      0.07136196     -0.88784430
C      -0.77219694     -0.41287292      0.25324431
N      -1.46591798     -0.64839331      1.51222220
N       0.24274493      0.59061057      0.54939403
C       1.21153037      0.83479689     -0.49631933
C       2.35685706     -0.14852539     -0.59070378
O       2.52531907     -1.08094530      0.15317145
H      -2.21554795     -0.62349242     -1.19033761
H      -2.04710466      0.91550229     -0.63350468
H      -0.34854424     -1.37900720     -0.05193546
H      -2.15717772     -1.38094969      1.41406771
H      -1.93640660      0.19863730      1.81330142
H       0.70552776      0.31070276      1.40576183
H       1.66639630      1.82803248     -0.37826461
H       0.69980507      0.86099864     -1.46257795
H       3.07924886      0.06344334     -1.40977524
