13
b3lypvtz=-213742.85601191
C       2.75502077      0.59158983     -0.60733549
C       1.90654235     -0.07383224     -0.08394873
C       0.89400118     -0.90464174      0.56368456
O      -0.36717411     -0.90338490     -0.10286476
C      -1.18077128      0.19291718      0.06076235
N      -0.94627652      1.28340502      0.66086260
N      -2.39755242     -0.08152821     -0.51731450
H       3.49871754      1.18840106     -1.07397746
H       1.21211408     -1.94686242      0.55411889
H       0.76699193     -0.60384379      1.60759475
H      -0.01270877      1.34908736      1.04471972
H      -2.39701496     -0.78275701     -1.23836633
H      -2.95866479      0.73310286     -0.69881259
