17
b3lypvtz=-215290.89037675
C       1.96496683     -1.02052626     -0.35042573
O       1.39034547      0.10372031      0.29631359
C       0.21159202      0.59312070     -0.33666593
C      -0.03585882      2.00068070      0.19172626
C      -0.99368942     -0.32000481     -0.08508824
N      -1.91609495     -0.57075010     -0.93101156
N      -1.05615501     -0.80729866      1.19326782
H       2.86161712     -1.28424872      0.20710262
H       1.28527440     -1.87942407     -0.36246860
H       2.24416976     -0.78134547     -1.38267153
H       0.37060565      0.62756226     -1.42131728
H      -0.17845909      1.98040393      1.27163483
H      -0.92873978      2.42521936     -0.26661931
H       0.81808633      2.63785842     -0.03696448
H      -1.72955834     -0.10465899     -1.81502328
H      -0.19805946     -0.84845493      1.71593994
H      -1.74309669     -1.52121767      1.36889888
