20
b3lypvtz=-182664.73693739
C       2.26941466     -0.75700594      0.00000005
C       1.45312471      0.53666301      0.00000008
C      -0.07646900      0.41028906     -0.00000016
N      -0.74010854      1.72192198     -0.00000046
C      -0.75795915     -0.47652461      1.08338398
C      -1.73032074     -1.00597440     -0.00000017
C      -0.75795883     -0.47652497     -1.08338421
H       3.33744957     -0.53292980      0.00000038
H       2.06615941     -1.36697848     -0.88129861
H       2.06615894     -1.36697882      0.88129838
H       1.73463629      1.13516709     -0.87422026
H       1.73463599      1.13516688      0.87422066
H      -0.45310564      2.25666255      0.81397294
H      -0.45310540      2.25666232     -0.81397394
H      -1.18847534      0.05728711      1.93056631
H      -0.09774554     -1.25884076      1.45605250
H      -1.93421589     -2.07583212     -0.00000004
H      -2.67271167     -0.46357827     -0.00000037
H      -1.18847474      0.05728644     -1.93056687
H      -0.09774510     -1.25884127     -1.45605220
