10
b3lypvtz=-248788.66193016
O       1.81485126     -0.84292441     -1.95326619
C       1.35160717     -0.98125447     -0.85491281
N       0.98807377      0.08718268     -0.02436516
C      -0.17031728      0.54942049      0.12970360
O      -0.44287593      1.59280381      0.93508634
C      -1.43422771      0.02076281     -0.52142255
O      -1.43727259     -0.99873792     -1.15222740
H       1.28028262     -1.95764646     -0.34752812
H       0.38742204      1.89870762      1.32837528
H      -2.33754336      0.63168585     -0.35554299
