13
b3lypvtz=-190420.45683363
C      -0.97219188     -0.06932233      1.18809161
C      -0.53559529     -1.07572151      0.06793773
C      -0.72182073      0.09315357     -0.95011706
C      -0.74784579      1.05100462      0.17783086
N       0.50174567      0.85349050     -0.66571433
C       1.40402457     -0.12036116     -0.12381595
N       0.91988757     -1.24013149      0.22285756
H      -2.03719021     -0.15676999      1.39977925
H      -0.39794371     -0.08871764      2.11439714
H      -1.07028841     -2.01278161     -0.03285236
H      -1.16315933      0.11471380     -1.93741578
H      -1.10257119      2.06938693      0.23188184
H       2.45084873      0.14165631     -0.03716049
