10
b3lypvtz=-225468.52144712
N      -2.18926183      0.39277997      0.10496963
C      -1.38195766     -0.60710729     -0.33373042
O      -1.77614750     -1.68094805     -0.74075419
C       0.04456507     -0.28219053     -0.27729452
C       1.22692814     -0.05437051     -0.24727878
C       2.65494914      0.17872231     -0.22813411
O       3.15886411      1.20500689      0.15961658
H      -1.81636752      1.26549655      0.43328513
H      -3.18453629      0.24571947      0.09680066
H       3.26306433     -0.66310882     -0.59977998
