15
b3lypvtz=-214495.47795448
C       2.55961627      0.48774144     -0.31934471
C       1.78106860     -0.64188946      0.26973972
N       0.52062762     -0.77947564      0.37061516
O      -0.18127656      0.31381753     -0.16507138
C      -1.55408385      0.20696056     -0.02856923
C      -2.26098735      1.34032558     -0.05246912
N      -2.04362829     -1.08588545      0.00766171
H       3.22997445      0.90767281      0.43454298
H       3.19050021      0.11736221     -1.13103577
H       1.91414779      1.27244328     -0.69957255
H       2.32712029     -1.48590044      0.68029777
H      -3.33946554      1.31539022     -0.04087032
H      -1.75946194      2.29065308     -0.13061145
H      -2.98025829     -1.15165373      0.37134952
H      -1.40369341     -1.73966199      0.43333766
