15
b3lypvtz=-214520.29484348
C      -2.34887643     -1.05157643     -0.27479220
C      -1.46326653     -0.10331608      0.05369110
N      -1.76840684      1.23112236      0.24869621
C      -0.01653372     -0.45525582      0.26067692
O       0.81064906      0.48753173     -0.43707283
C       2.15455091      0.34735036     -0.32843114
N       2.84469060     -0.50372132      0.29526537
H      -2.02488733     -2.05952834     -0.48064469
H      -3.40640098     -0.83999381     -0.35907604
H      -2.73069737      1.46576016      0.42231652
H      -1.10182365      1.79531474      0.74612177
H       0.22790032     -0.41226181      1.32929108
H       0.17480263     -1.46634155     -0.09968028
H       2.63610579      1.13486646     -0.90179668
H       2.28918454     -1.19619864      0.79235087
