13
b3lypvtz=-213748.13436433
C       1.92069306     -0.87737503      0.07422518
N       0.98272501     -0.23588910      0.63122732
C      -0.16733996      0.13057894     -0.08940094
C      -0.69952589      1.47762032      0.17425203
N      -0.21545289      2.33345440      0.98031977
C      -0.80275952     -0.75262665     -0.88451649
O      -1.93772435     -0.43499694     -1.56257001
H       1.92584259     -1.13212045     -0.99117890
H       2.77278181     -1.19255671      0.67057704
H      -1.59376686      1.74373060     -0.38573226
H       0.61188816      1.94519274      1.44033929
H      -0.44487282     -1.77097319     -0.98533845
H      -2.35268836     -1.23393893     -1.89870358
