14
b3lypvtz=-203689.26637077
C      -1.28617253     -0.54265880      1.59772961
C      -0.39569586     -0.00853482      0.76725806
C      -0.26241763     -0.36892842     -0.66523958
N      -1.19912377     -0.75336730     -1.43721377
C       1.12608931     -0.19762423     -1.25719649
C       1.29797830      1.22888735     -1.74764896
O       2.07924203      2.01774873     -1.28546965
H      -1.33565086     -0.24688867      2.63652475
H      -1.98352773     -1.30639435      1.27421829
H       0.32149343      0.71390883      1.14350208
H      -2.09543330     -0.76555267     -0.94827232
H       1.20437781     -0.86371806     -2.11773161
H       1.91017927     -0.41569674     -0.53343233
H       0.61876153      1.50891915     -2.57702806
