17
b3lypvtz=-194354.80809623
C       1.61046278      0.62363051      0.64590450
C       0.85067114     -0.42573927     -0.11901239
C      -0.28410243     -0.16333801     -1.06582381
C      -0.50110151     -0.96436671      0.24921984
C      -1.45589211      0.11704311      0.75461260
C      -1.23854858      0.92127445     -0.56686712
O       1.77148896     -1.40527510     -0.56418494
H       2.36416433      1.07965109      0.00191214
H       2.12034824      0.16704984      1.49581121
H       0.95808055      1.40979434      1.01978489
H      -0.22581628     -0.52126333     -2.08636641
H      -0.63503265     -2.02978227      0.39032352
H      -1.17894126      0.60904225      1.68870428
H      -2.48005159     -0.24016860      0.84766766
H      -0.82394241      1.92684231     -0.47616155
H      -2.14994528      0.97993876     -1.15944024
H       1.29815808     -2.08433339     -1.05608420
