18
b3lypvtz=-205197.2231676
C       2.22441801     -0.80369697     -0.56675574
C       1.45780210     -0.41414266      0.69783101
C       0.21840397      0.45142551      0.46330096
O       0.66920237      1.68226224     -0.11231417
C      -0.83624775     -0.19492992     -0.40208056
C      -1.89406584     -1.03337614      0.20043803
N      -2.22900322      0.29541880     -0.34097307
H       3.14064570     -1.33558968     -0.30708419
H       2.49815723      0.08080766     -1.14067157
H       1.63948725     -1.46001393     -1.21298112
H       1.14804634     -1.30914809      1.24335634
H       2.11839627      0.14626728      1.36355533
H      -0.23879012      0.65465519      1.44442783
H      -0.09547282      2.17302551     -0.42964668
H      -0.51842094     -0.42278815     -1.41279862
H      -1.88730039     -1.16172999      1.27698881
H      -2.30194911     -1.87006862     -0.35198463
H      -2.33028006      0.95118096      0.42960504
