12
b3lypvtz=-226242.74607476
N      -0.65190479      0.41478853      1.27769578
C      -0.37010482     -0.21894213      0.10028514
C      -1.34791185     -1.30939452     -0.23044256
O      -1.30854448     -1.99432821     -1.21575105
C       0.63018715      0.05539268     -0.77558039
C       1.65424665      1.06085310     -0.58667258
O       2.54045933      1.29922602     -1.38262094
H       0.00216357      1.06272685      1.67820899
H      -1.27574797     -0.03240820      1.92749158
H      -2.14617114     -1.45061827      0.53029733
H       0.66360975     -0.52787720     -1.68484545
H       1.60971861      1.64058135      0.36193414
