15
b3lypvtz=-191189.84225253
C       2.48748683     -0.29590726     -0.18874337
N       1.08550607     -0.48008550     -0.52918598
C       0.21378463      0.58017087     -0.35193363
C      -1.08498933      0.49497346      0.01542212
C      -1.67352054     -0.76439730      0.30402914
C      -2.16230225     -1.84370348      0.52490581
N      -1.92311436      1.63529535      0.19991808
H       2.66688643     -0.15439374      0.88511795
H       2.87740572      0.57830488     -0.71265780
H       3.05663808     -1.16234065     -0.52373455
H       0.70287957     -1.36548089     -0.22860483
H       0.64146805      1.55309432     -0.56886874
H      -2.60056316     -2.78816906      0.72925311
H      -1.47788158      2.48215382     -0.12847932
H      -2.80968418      1.53048518     -0.27800677
