19
b3lypvtz=-192758.73618062
C      -2.88201863      0.54574210     -0.43127527
C      -2.18154579     -0.56578640      0.35232816
C      -0.71502411     -0.27942417      0.69481468
C       0.21604416     -0.22715645     -0.52924287
C       1.66990044     -0.02116280     -0.15246754
N       2.57357135     -0.92204755     -0.11806866
N       1.97919096      1.26017089      0.26016828
H      -2.83579756      1.49468650      0.10860104
H      -3.93497020      0.30826431     -0.59048375
H      -2.43336515      0.70092976     -1.41384696
H      -2.24450015     -1.50392359     -0.20824440
H      -2.72408951     -0.73595869      1.28602470
H      -0.64404610      0.66312795      1.24392791
H      -0.34721012     -1.05505659      1.37100480
H       0.13655260     -1.16058700     -1.08942609
H      -0.09986708      0.57375030     -1.20423843
H       2.19078742     -1.82501172     -0.38224363
H       1.45067258      2.02206739     -0.12880039
H       2.96380687      1.43828277      0.38085242
