18
b3lypvtz=-205212.11838508
N      -2.21307019     -0.01889173     -0.81746303
C      -1.76111478     -0.00859691      0.57707988
C      -0.23432294     -0.01825917      0.70206209
C       0.49833288     -1.17804992      0.01038712
C       1.91245137     -0.62042998     -0.10991870
O       1.75665198      0.77646281     -0.36002526
C       0.46282181      1.20578247      0.08785439
H      -3.17217939      0.29570654     -0.88399121
H      -2.18665075     -0.95421894     -1.20307331
H      -2.16640715     -0.83967189      1.17051251
H      -2.13779746      0.90770335      1.03866490
H      -0.00034792     -0.05946822      1.77053989
H       0.08593734     -1.35093464     -0.98550807
H       0.45431311     -2.11087009      0.57384653
H       2.47602106     -0.77852682      0.81941123
H       2.48509513     -1.05189036     -0.93199542
H       0.58469191      2.01503954      0.81327697
H      -0.10043199      1.58006297     -0.76943850
