14
b3lypvtz=-201261.57265291
C      -0.72219969      1.66742187      0.23248664
C      -0.33143631      0.40162153      0.07007957
N      -1.25756029     -0.68234709      0.15267444
N      -2.36674932     -0.47293842     -0.36195463
C       1.10309441     -0.00235509     -0.04524877
C       1.42915942     -1.46175146      0.15656376
N       1.95416988      0.90483844     -0.31260361
H      -1.76877536      1.90411688      0.35662387
H       0.01298842      2.45732680      0.26467840
H      -2.94010199     -1.30763010     -0.17467935
H       1.08925373     -1.80748246      1.13378069
H       2.50291396     -1.62318226      0.06950838
H       0.91474879     -2.07973967     -0.58173789
H       2.89583134      0.51779403     -0.35693950
