17
b3lypvtz=-215288.12186142
C      -1.94454777      0.90058556      0.88081046
C      -1.20192198      0.10686260     -0.20096625
N      -2.08278322     -0.98198967     -0.66060935
C       0.08143017     -0.49131881      0.29675735
C       1.31849493     -0.04865393      0.02476560
N       1.67180682      1.08754017     -0.68496104
O       2.45531100     -0.65656592      0.48555368
H      -1.33219711      1.72812226      1.23932841
H      -2.88164279      1.31156521      0.49421671
H      -2.18186422      0.25048604      1.72382041
H      -0.97203839      0.81013196     -1.01888399
H      -1.62687219     -1.51235257     -1.39375017
H      -2.94211092     -0.60687866     -1.04695276
H      -0.02343768     -1.34228823      0.96075793
H       0.93595020      1.48323247     -1.24665177
H       2.54349509      0.99407374     -1.18505865
H       2.20164405     -1.45763023      0.95463344
