14
b3lypvtz=-201288.38024041
N       2.39172250     -1.22577994     -0.22273711
C       1.29936346     -0.81761470      0.27221291
C       0.68712927      0.54688065      0.08825721
N       1.40279445      1.60988431     -0.00237531
C      -0.75783026      0.65938949      0.02564845
C      -1.61976144     -0.37693297     -0.01019816
N      -2.98361038     -0.27577980     -0.04320933
H       2.81447936     -0.50201044     -0.81224888
H       0.75353265     -1.51575575      0.90848570
H       2.39506770      1.38885078      0.08920879
H      -1.13262676      1.67553735     -0.02995545
H      -1.26350513     -1.39892324      0.02143614
H      -3.39263058      0.61719797     -0.26321214
H      -3.51533385     -1.07301270     -0.34308083
