14
b3lypvtz=-224580.41220212
C      -2.36820110      1.06829405     -0.02114372
O      -2.27594845     -0.36337775      0.02697273
C      -1.04997700     -0.88733966      0.02338002
N       0.01811023     -0.20528930     -0.02624746
C       1.23568897     -0.88654085     -0.03724801
N       2.37249402     -0.30371046     -0.01368971
N       2.39981641      1.05680736      0.11028276
H      -1.85998901      1.51085979      0.83483447
H      -3.43030578      1.29268142      0.00400342
H      -1.91693713      1.44799223     -0.93741045
H      -1.09958343     -1.97674760      0.07079404
H       1.24426376     -1.97397608     -0.07696466
H       3.24335290      1.42872227     -0.29520127
H       1.55450662      1.52941359     -0.19328215
