14
b3lypvtz=-203680.3616913
C      -2.31698214     -1.17289561     -0.29897706
N      -1.45619280     -0.54968093      0.37916550
C      -1.36111770      0.88508781      0.20083472
C       0.00282880      1.43452566     -0.10042863
C       1.21306673      0.86600925     -0.15623233
C       1.58185731     -0.53948968      0.08968944
O       2.72861693     -0.92282456     -0.01703364
H      -2.41822834     -2.24818605     -0.17430257
H      -2.98342697     -0.68679795     -1.02258444
H      -2.05217778      1.25184840     -0.57604113
H      -1.68962793      1.35292170      1.13813082
H      -0.03858085      2.50145145     -0.30349557
H       2.06234582      1.49316096     -0.40591477
H       0.77385990     -1.22316844      0.38602766
