13
b3lypvtz=-237036.5350165656
C       0.82316053     -0.30793855     -0.44722481
C      -0.59676871     -0.10156143      0.02258797
N      -0.87483337      1.00410406      0.68036656
O      -1.96701756      1.40186052      1.15157633
C      -1.63097925     -1.08267268     -0.26508689
O      -1.39380220     -2.10544043     -0.88222333
N       1.72509874      0.68803219      0.14479561
H       1.10924708     -1.34111512     -0.23379290
H       0.85096120     -0.21534478     -1.53562896
H      -0.03983984      1.60256213      0.80870639
H      -2.63796156     -0.84308527      0.10877482
H       2.43388674      0.98034773     -0.51243173
H       2.19884819      0.32025162      0.95958094
