18
b3lypvtz=-181888.24086978
C       2.75518757     -0.90160311      0.18810916
C       1.80297220     -0.16744968     -0.37680351
C       0.60550872      0.33051874      0.32453167
C       0.03712054      1.69185236      0.07120497
N      -0.62004012      0.51477307     -0.46086859
C      -1.87086630      0.11190621      0.17657051
C      -2.17932207     -1.35301444     -0.09976816
H       3.62009938     -1.23368073     -0.36974336
H       2.70348658     -1.19525566      1.23021164
H       1.87377216      0.10674257     -1.42458352
H       0.47629718     -0.03897799      1.33952823
H       0.50290592      2.34736101     -0.65503784
H      -0.41626497      2.19609988      0.92015619
H      -2.66211945      0.74476391     -0.23342916
H      -1.84540745      0.29468772      1.26295180
H      -2.22594387     -1.53710473     -1.17326121
H      -1.40971543     -2.00272168      0.32004397
H      -3.13655759     -1.63415645      0.34223621
