17
b3lypvtz=-191980.08433559
C       2.38314978     -0.99364147      0.31391585
N       1.21148994     -0.79839479     -0.11259079
C       0.60947992      0.47343214     -0.03436566
N       0.95082912      1.47853178     -0.73439308
C      -0.59629583      0.54584953      0.87478495
C      -1.93287226      0.38227002      0.12670823
C      -2.16148488     -1.00523450     -0.47098744
H       2.83272698     -1.97790542      0.20577827
H       2.98384550     -0.21452075      0.79354353
H       1.74904059      1.25893904     -1.33030225
H      -0.51477523     -0.21264080      1.65620623
H      -0.57340897      1.52772813      1.34813380
H      -1.97740383      1.14073173     -0.65749621
H      -2.73783488      0.61112189      0.82994445
H      -3.13157732     -1.05516627     -0.96828614
H      -2.14356438     -1.77608585      0.30279697
H      -1.39546426     -1.26090340     -1.20331771
