16
b3lypvtz=-204441.88799958
C       3.32320329     -0.59352937      0.00000023
N       2.42422097      0.30440891     -0.00000117
C       1.08502246     -0.06806826     -0.00000008
C       0.15831175      0.90471685     -0.00000179
O      -1.17960240      0.78446790     -0.00000133
C      -1.74300447     -0.53168414      0.00000036
C      -3.24987674     -0.39448609     -0.00000139
H       4.36793001     -0.29862080      0.00000052
H       3.10227617     -1.66728463      0.00000363
H       0.82656333     -1.12528172      0.00000207
H       0.46900124      1.94095094     -0.00000381
H      -1.39295511     -1.07109389     -0.88563102
H      -1.39295685     -1.07109092      0.88563424
H      -3.71371844     -1.38176503      0.00000057
H      -3.58867641      0.14530326      0.88421854
H      -3.58867477      0.14529898     -0.88422457
