18
b3lypvtz=-181895.70616174
C      -3.11367269     -0.00011476     -0.03022147
C      -1.86258815     -0.00006544     -0.47652825
C      -0.64267372      0.00002078      0.37602540
C       0.45534526     -1.07538504      0.11557082
C       1.53030402      0.00011683      0.38745590
N       2.68650987      0.00013670     -0.50025624
C       0.45525091      1.07550336      0.11549072
H      -3.33554912     -0.00009359      1.03092123
H      -3.95945222     -0.00017636     -0.70526394
H      -1.68479913     -0.00009016     -1.54981413
H      -0.92787406      0.00004770      1.42965016
H       0.44310978     -1.97053106      0.73698548
H       0.47840611     -1.36460682     -0.93623255
H       1.79433454      0.00016851      1.45357581
H       3.26842108      0.81196162     -0.32045417
H       3.26853123     -0.81158615     -0.32035001
H       0.47828519      1.36464911     -0.93633427
H       0.44293810      1.97069476      0.73683851
