10
b3lypvtz=-246407.13848941
C      -1.22167232      0.58932510      0.05963298
O      -2.19056777      1.31373528      0.10403059
N       0.13704068      0.95664623     -0.01875200
C       0.88310451     -0.18380984     -0.04598715
N       0.17681418     -1.26017045      0.00510409
N      -1.12936538     -0.77771227      0.07059618
O       2.21625900     -0.11159007     -0.11936640
H       0.46869188      1.90428035     -0.04795933
H      -1.90107055     -1.41607549      0.12012437
H       2.56076578     -1.01462884     -0.12742332
