15
b3lypvtz=-191234.21778352
C      -1.59643327     -0.42480534      0.06585429
C      -0.58667932     -1.25618305     -0.73128481
N       0.80142411     -1.07827776     -0.31476272
C       1.14107054      0.09764078      0.05528157
C       0.20344774      1.23344331      0.17595680
C      -1.10631860      0.98930432      0.19385999
N       2.47005910      0.38010168      0.32431043
H      -1.73199524     -0.84787824      1.07006905
H      -2.57648350     -0.45642017     -0.41473018
H      -0.66817910     -0.99587745     -1.79597114
H      -0.83159276     -2.31616195     -0.65470436
H       0.60147260      2.23613485      0.27011887
H      -1.81978863      1.79370302      0.32799010
H       2.65043919      1.08667597      1.01905362
H       3.04955714     -0.44139995      0.40895849
