16
b3lypvtz=-204436.80832293
N      -2.53558193     -0.69859144     -0.31481262
C      -1.40873919     -0.81750602      0.24428080
C      -0.34501896      0.25931790      0.38655048
O      -0.82084388      1.53588702     -0.02673730
C       0.86918835     -0.08120426     -0.44346345
C       2.21054293      0.48907003     -0.08151003
C       1.94110284     -0.97722436      0.11994554
H      -2.63801195      0.25415171     -0.67810316
H      -1.13877804     -1.78810674      0.66673602
H      -0.04007225      0.28944938      1.44259366
H      -1.48927061      1.83489141      0.59880843
H       0.65326182     -0.18597928     -1.49956628
H       2.26541298      1.12138092      0.79411624
H       2.86750778      0.78561005     -0.88658480
H       2.41053851     -1.68650131     -0.54661697
H       1.82642361     -1.33400702      1.13490944
