18
b3lypvtz=-205217.51854336
C       2.68374665     -0.51976746     -0.68955543
C       1.68243547     -0.70237767      0.45013590
C       0.93988310      0.57222607      0.82496198
O       0.16617294      1.10220011     -0.27545625
C      -1.07798590      0.62679884     -0.45101071
N      -1.62288072     -0.25584890      0.26108495
C      -2.98461764     -0.63624799     -0.05553354
H       3.19094260     -1.45785745     -0.91898925
H       3.44802805      0.21677360     -0.43048313
H       2.18827915     -0.17633616     -1.59802061
H       0.95183954     -1.47292417      0.19956224
H       2.20082831     -1.04810080      1.34983275
H       1.64016808      1.37182507      1.06819235
H       0.27510958      0.39968155      1.66987670
H      -1.54876120      1.12663117     -1.30273347
H      -3.02723483     -1.70632962     -0.26921493
H      -3.40598380     -0.09544095     -0.91390669
H      -3.62655640     -0.45836824      0.80977614
