18
b3lypvtz=-205215.88403179
O       2.92777548      0.32701510      0.17328019
C       1.90287448     -0.63651961     -0.01457690
C       0.54255004     -0.10546939      0.39584324
C      -0.64185567     -1.08278716      0.25349411
C      -1.86436671     -0.16153181      0.00229853
C      -1.25308194      1.25844847     -0.15900623
N       0.18514369      1.07731296     -0.40926150
H       2.55272933      1.18084981     -0.07528208
H       1.86034763     -0.96379421     -1.06552289
H       2.16947957     -1.50785423      0.58599620
H       0.61030138      0.23013426      1.43637562
H      -0.76490858     -1.71358413      1.13395349
H      -0.47578988     -1.74556450     -0.59951408
H      -2.57785869     -0.19600463      0.82584332
H      -2.40114962     -0.46194172     -0.89779943
H      -1.70925113      1.83756766     -0.96074529
H      -1.37195619      1.82908340      0.76455986
H       0.30881682      0.83473971     -1.39003617
