15
b3lypvtz=-214500.75431141
N       2.52387570     -0.32813200      0.00000901
C       1.33343680     -0.74822260      0.00000862
C       0.08075441      0.08176979     -0.00000135
O       0.44773821      1.44478342     -0.00000779
C      -1.01293675     -0.27021179      1.05233920
N      -2.03695578     -0.06913205     -0.00001108
C      -1.01292611     -0.27022469     -1.05234862
H       2.52769000      0.69485171      0.00000615
H       1.16179982     -1.82761004      0.00000774
H      -0.35742968      1.97333573     -0.00001268
H      -1.07909952      0.40690116      1.90538717
H      -0.92312243     -1.30104039      1.41194027
H      -2.80879174     -0.72345739     -0.00001092
H      -0.92310847     -1.30105769     -1.41193622
H      -1.07908047      0.40687783     -1.90540551
