15
b3lypvtz=-214538.35107091
C      -2.24746572     -1.00424119     -0.32408359
C      -1.23973084     -0.23258780      0.09389816
N      -1.40193848      1.16929143      0.34571097
N       0.04751606     -0.74683619      0.27081214
C       1.09568129     -0.07425107     -0.02112100
C       2.46140449     -0.65711186      0.15510884
O       1.13740457      1.17489399     -0.52986046
H      -3.24598701     -0.60980135     -0.44766250
H      -2.06734959     -2.03881266     -0.56836662
H      -1.10049753      1.41524552      1.28292394
H      -2.36128742      1.46551716      0.22255018
H       2.97689626     -0.68439769     -0.80685128
H       2.38877543     -1.66074466      0.56143027
H       3.05555742     -0.02687346      0.81925485
H       0.22076207      1.52942885     -0.51252790
