17
b3lypvtz=-215322.71463894
C      -2.22169449     -0.99031019     -0.37569649
C      -1.14027055      0.07891338     -0.23958993
C      -1.55232478      1.20314660      0.71478123
N       0.11490770     -0.55454231      0.16849242
C       1.32782088      0.02057069     -0.12759806
N       2.41244865     -0.59104098      0.49368874
O       1.45734337      0.98948580     -0.85517931
H      -1.92419105     -1.75755262     -1.09077220
H      -3.15836540     -0.54667605     -0.71470337
H      -2.41766686     -1.47604358      0.58475229
H      -0.93869175      0.51527952     -1.21722390
H      -0.76759581      1.95618141      0.77488803
H      -2.46623818      1.68937847      0.36821679
H      -1.73952182      0.81331408      1.71895656
H       0.07412993     -1.13440620      0.99220529
H       2.35135682     -1.58222960      0.66561178
H       3.29312234     -0.29913043      0.10128213
