14
b3lypvtz=-201285.68586533
C       2.47634225     -0.18546140     -0.10147427
N       1.30684631     -0.60002899      0.12167022
C       0.29871910      0.35575820      0.53731674
C      -0.99366894      0.10443998     -0.28179344
C      -1.99589243      1.11747277      0.07093889
N      -2.75567673      1.92361397      0.37976118
N      -1.56628774     -1.23212987     -0.14893329
H       2.77749646      0.86333151      0.00601234
H       3.24124352     -0.89222266     -0.41439370
H       0.62556583      1.39825380      0.42843999
H       0.07100476      0.17718484      1.59182252
H      -0.74856659      0.25337117     -1.33767120
H      -0.82579935     -1.90758239     -0.30371232
H      -1.91132644     -1.37600094      0.79374683
