21
b3lypvtz=-172599.33290555
C      -2.44601983     -0.60054201      0.52339120
C      -1.67334145      0.42820928     -0.30601885
C      -0.30366693      0.73966697      0.25654307
C       0.79052122      1.32719031     -0.60236927
C       0.94546671     -0.06509482     -0.03885520
C       0.90104624     -1.24020540     -0.99476831
C       1.92961825     -0.25167901      1.09887995
H      -1.92204520     -1.55742782      0.55457570
H      -2.57006387     -0.25960276      1.55365711
H      -3.44112303     -0.77662952      0.11093212
H      -2.24905994      1.35812177     -0.35572421
H      -1.58769641      0.07874799     -1.33716653
H      -0.34448527      1.12870513      1.26972825
H       0.59064952      1.41931071     -1.66306872
H       1.40179910      2.12343716     -0.19739467
H       0.20189862     -1.08418711     -1.81531922
H       0.61222732     -2.15967842     -0.47854274
H       1.88773925     -1.40808631     -1.43455273
H       1.67266932     -1.12719328      1.70148106
H       1.94333933      0.61548791      1.76101106
H       2.94511603     -0.39713476      0.71994793
