17
b3lypvtz=-191985.07634916
C      -1.86792074      1.40179094      0.06946591
C      -1.56720526      0.09659448      0.05553129
C      -2.57269549     -0.96642598     -0.29164725
N      -0.31938499     -0.41722335      0.42888519
C       0.74253502      0.11239605     -0.03899061
N       1.98627617     -0.21469734      0.40129887
C       3.18693843      0.04689240     -0.36598868
H      -2.85563922      1.74835579     -0.19954123
H      -1.15127721      2.14396879      0.39422823
H      -3.54489851     -0.53776192     -0.52900176
H      -2.22927093     -1.55624977     -1.14539618
H      -2.68510997     -1.65915014      0.54511389
H       0.72756752      0.88353559     -0.81649541
H       2.01198073     -0.96566522      1.07413279
H       3.06257955      0.97424749     -0.92462304
H       4.03710459      0.17380931      0.30390382
H       3.42363931     -0.75057209     -1.07891082
