14
b3lypvtz=-229598.53196464
N       3.18166143     -0.23801624      0.05380481
C       1.87915127      0.21639972     -0.08837811
C       0.76608610     -0.51321919      0.08565347
C      -0.58267746      0.02903944      0.03391070
N      -0.73534378      1.42450326     -0.01899464
C      -1.63984869     -0.79253059     -0.02262277
F      -2.90605493     -0.28373209     -0.04482257
H       3.87142087      0.23575275     -0.50640733
H       3.30312229     -1.23929121      0.04372090
H       1.80520453      1.27159645     -0.32036682
H       0.85004740     -1.57687005      0.28081129
H      -0.18605659      1.90425560      0.68105658
H      -1.70294443      1.70769750      0.03889662
H      -1.60880901     -1.86748534     -0.08785014
