14
b3lypvtz=-208660.05852162
C       1.73020519     -1.91539133      0.65604300
C       0.94770492     -1.05337163      0.36043285
C      -0.02213298     -0.04964332      0.01493404
C       0.31557478      0.94851762     -1.07523049
C       0.27238975      1.39835878      0.35468971
C      -1.45029452     -0.55430904      0.12988025
F      -2.35461225      0.44828449     -0.21411234
H       2.43065311     -2.66935578      0.91511108
H      -0.49726835      1.25206372     -1.71907194
H       1.27733637      0.84579140     -1.55541779
H      -0.56898357      2.00180500      0.66350583
H       1.20455738      1.60504508      0.85924548
H      -1.66895276     -0.86117720      1.15434073
H      -1.61617702     -1.39661779     -0.54435039
