16
b3lypvtz=-201998.49253886
N      -2.28036490      0.32718207     -0.15658548
C      -1.05129949     -0.34643066      0.22048288
C       0.08951912     -0.33545577     -0.83061514
N       0.28242496      1.15930136     -0.62428914
C       0.08789971      0.56159739      0.76420000
C       1.09622314     -0.53529139      0.35626462
N       2.47768579     -0.15419361      0.26304576
H      -2.83693099     -0.25478833     -0.77095863
H      -2.84860699      0.52415388      0.65853031
H      -1.19301658     -1.29418041      0.75593532
H       0.09773949     -0.78728337     -1.82318086
H      -0.58734288      1.62508001     -0.88729865
H       0.09480094      1.17723673      1.66355443
H       0.99625396     -1.48111021      0.88914082
H       2.54997548      0.69180828     -0.29150790
H       3.02493924     -0.87752598     -0.18671833
