15
b3lypvtz=-216895.98375134
C      -0.48526512      1.24144550      0.37970336
C      -1.27262672     -0.08852929      0.64022769
C      -0.19445469     -0.84968694     -0.12615350
C       0.57287052      0.44769287     -0.38285871
C       1.15190667     -0.63212116      0.49676027
O       1.18701886      0.88785780     -1.54572778
O      -0.39657166     -1.98231717     -0.89627149
H      -1.03146706      1.92222498     -0.27147846
H      -0.14263023      1.78398896      1.26353993
H      -2.23649357     -0.09731204      0.13033222
H      -1.41899842     -0.38065422      1.68179967
H       1.27371778     -0.49663616      1.56777855
H       1.92610127     -1.21283432      0.01138756
H       2.06558770      1.21978065     -1.33335330
H      -0.99869533     -1.76289947     -1.61568599
