12
b3lypvtz=-221400.73902355
N       3.07192197      0.25737076     -0.02567553
N       2.08579630     -0.48123084      0.02376702
N       0.89487587      0.29536093      0.05787052
C      -0.12489770     -0.46079681     -0.01787019
C      -1.49799250      0.12056969     -0.00308683
N      -1.76277632      1.36589216      0.00021855
N      -2.49798894     -0.82880025     -0.05330028
H       3.88353803     -0.37335100     -0.04573000
H      -0.00796933     -1.54394136     -0.09837444
H      -0.89841484      1.90210114     -0.03079352
H      -3.42645946     -0.47250378      0.11039564
H      -2.31391507     -1.73767364      0.33710906
