20
b3lypvtz=-182664.33009789
C      -2.02869112      0.73929075     -0.61122799
C      -1.18789692     -0.08176913      0.01042010
C      -1.60757861     -1.46769956      0.43066962
C       0.24974429      0.28615774      0.34524852
C       0.52999562      1.78673305      0.41785093
N       1.15712402     -0.34429810     -0.63213243
C       2.45432950     -0.73757259     -0.10161629
H      -3.03972075      0.43112666     -0.84674957
H      -1.74923149      1.74099075     -0.90466082
H      -2.60539687     -1.71290108      0.06916409
H      -1.60822341     -1.55441345      1.52120830
H      -0.91732515     -2.23179977      0.06210475
H       0.44484938     -0.13344189      1.34766707
H       1.56802828      1.96177917      0.70284113
H       0.37405454      2.25754874     -0.55229958
H      -0.10760573      2.27227189      1.15813834
H       0.70753948     -1.13620454     -1.06925345
H       3.01778874      0.14443763      0.20741834
H       2.39830886     -1.41541590      0.76516876
H       3.03147632     -1.23029439     -0.88476681
