15
b3lypvtz=-214478.5238470339
C      -0.26255465     -0.00546372      0.67374081
C      -1.44805395     -0.01885322     -0.30374338
N      -2.65051084      0.48204112      0.36276445
C       0.96424841     -0.61960756      0.09690462
C       2.14914480     -0.01843236     -0.05096616
N       3.19668929     -0.77693859     -0.62568093
O       4.24833352     -0.17432301     -0.73273315
H      -0.05986012      1.01812372      0.99790842
H      -0.56702778     -0.57012580      1.56091489
H      -1.17098585      0.53934335     -1.20820781
H      -1.64096815     -1.04806076     -0.61461676
H      -3.46168357      0.35998571     -0.23119056
H      -2.57073542      1.47685551      0.54103484
H       0.90086175     -1.64984581     -0.24315271
H       2.37310258      1.00530141      0.23632928
