13
b3lypvtz=-211389.10331668
C      -2.10287072     -0.59129253     -0.29577579
C      -0.71755802     -0.08647432     -0.09141557
N       0.39951361     -0.77637929     -0.24765147
C       1.37295754      0.13205590      0.04859949
N       2.71186764     -0.18076925     -0.05379035
N       0.93717609      1.33536576      0.38474351
N      -0.41641607      1.16819686      0.28190044
H      -1.03209364      1.93707343      0.47934395
H      -2.25613377     -0.87279407     -1.33840927
H      -2.27484514     -1.47907437      0.31291646
H      -2.84435829      0.16151901     -0.02892791
H       2.90403635     -1.16255190      0.06246402
H       3.31882441      0.41512478      0.48580248
