13
b3lypvtz=-239681.08829024
C      -2.53670483     -0.33525278      0.00547961
N      -1.14832552     -0.74687875      0.01575023
C      -0.25383882      0.16088661      0.00147857
N      -0.43575621      1.51602164     -0.04666075
C       1.17437051     -0.30613310      0.00065156
N       1.61204450     -1.46937940     -0.01480782
F       2.05104843      0.72820071      0.02735594
H      -2.78552236      0.25033705     -0.88935324
H      -3.17625793     -1.21532610      0.01806541
H      -2.79540746      0.27501698      0.88230552
H       0.35361463      2.11998626      0.09410661
H      -1.34745436      1.89853547      0.12727484
H       0.81656144     -2.10853558     -0.03147049
