15
b3lypvtz=-191215.947362
C       0.87159560      1.86284331     -0.08198103
C       0.73652600      0.53023166     -0.08051975
C       1.91198854     -0.34619059      0.12131663
N       1.93564726     -1.61257607      0.05943934
N      -0.46686185     -0.13795311     -0.35767774
C      -1.52317146      0.15566710      0.27718145
C      -2.83989831     -0.47757401     -0.02185183
H       1.84154395      2.31374641      0.07571985
H       0.04006266      2.52244581     -0.28613412
H       2.84107904      0.17916521      0.34780393
H       1.00272614     -1.96335089     -0.17289754
H      -1.50329739      0.89844150      1.08512427
H      -2.74680731     -1.20214850     -0.82769281
H      -3.56871665      0.28727374     -0.30442634
H      -3.23582724     -0.97028557      0.87010068
