15
b3lypvtz=-193609.96109018
C       2.08800674      0.30588783     -0.39972143
C       0.66183871      0.09773389      0.01926309
C      -0.27732320      1.28971894      0.20875256
C      -1.64878497      0.70526401     -0.04258796
C      -1.59143691     -0.58453321     -0.37372621
C      -0.17947231     -1.05760132     -0.33981678
O       0.42670460     -0.94828244      0.97545919
H       2.59118726     -0.65119063     -0.53240474
H       2.63273718      0.87244446      0.35923379
H       2.14085323      0.86329943     -1.33703240
H      -0.04556297      2.09587399     -0.49447126
H      -0.18509618      1.70706656      1.21519170
H      -2.55721016      1.28157002      0.07050584
H      -2.43525314     -1.22071246     -0.59904761
H       0.16903011     -1.89420406     -0.93298680
