17
b3lypvtz=-171070.0558029
C       1.60370807      0.22088721      0.00000009
C       0.79737272      1.27938490     -0.00000023
C      -0.69633013      1.04123348     -0.00000031
C      -1.01470326     -0.05077559      1.06519480
C      -0.53462506     -1.07675639      0.00000020
C       0.99968526     -1.16339828      0.00000033
C      -1.01470309     -0.05077610     -1.06519495
H       2.68229570      0.32342611      0.00000016
H       1.18188112      2.29208053     -0.00000041
H      -1.27744002      1.96108118     -0.00000059
H      -2.08562057     -0.14066089      1.24760068
H      -0.47935839      0.00097100      2.01332444
H      -0.99073501     -2.06656160      0.00000042
H       1.34595750     -1.72641890      0.87425084
H       1.34595760     -1.72641922     -0.87424995
H      -0.47935806      0.00097002     -2.01332453
H      -2.08562037     -0.14066149     -1.24760098
