12
b3lypvtz=-249543.49709863
C       0.73856853     -0.42298339     -0.66834176
C      -0.45595764      0.04917454      0.18146045
C      -1.62897298     -0.83415033     -0.02378935
N      -2.50209901     -1.56588560     -0.17713440
O      -0.01781669     -0.02168860      1.52425754
O      -0.84050817      1.34452072     -0.17281441
O       1.75742773      0.55913445     -0.60856060
H       1.07666904     -1.39790822     -0.31245508
H       0.43102112     -0.50327183     -1.70870478
H      -0.66768739      0.43248270      2.07460610
H      -0.01994591      1.81418324     -0.38961406
H       2.12930136      0.54639233      0.28109035
