17
b3lypvtz=-194373.4265345
C       2.80654469     -0.37643884      0.00011036
C       1.52100777      0.00525732      0.00003193
C       1.15286275      1.46711278     -0.00003133
C       0.47401814     -1.01263994      0.00002003
C      -0.85937613     -0.88092059     -0.00008942
O      -1.52718793      0.30167513     -0.00031249
C      -2.94510795      0.20091974      0.00030379
H       3.61057804      0.34719669      0.00012754
H       3.08735745     -1.42200955      0.00015706
H       2.04889314      2.08665971      0.00000655
H       0.55116871      1.72225738      0.87346195
H       0.55127214      1.72221084     -0.87360867
H       0.81923695     -2.03947301      0.00009342
H      -1.49001864     -1.76489660     -0.00007028
H      -3.30346031     -0.31952297      0.89304561
H      -3.30414508     -0.32079865     -0.89141936
H      -3.33098174      1.21717558     -0.00027769
