16
b3lypvtz=-181140.12688625
C      -2.53491747      0.22427259      0.31786809
C      -1.26092312     -0.02194885     -0.01960582
C      -0.83920627     -1.40563432     -0.44140632
C      -0.33025436      1.11180917     -0.03714741
C       1.00419792      1.17014898     -0.18757769
C       2.00952177      0.09528694     -0.22261680
N       2.17463036     -0.85550945      0.60558510
H      -2.86621416      1.21731484      0.59351595
H      -3.27886472     -0.56103441      0.33249877
H      -0.17529417     -1.88110935      0.28006501
H      -0.29610474     -1.37783764     -1.38778086
H      -1.71407646     -2.04197320     -0.56637631
H      -0.83138150      2.07177986      0.03776728
H       1.43399773      2.16248090     -0.29974613
H       2.74216716      0.17127825     -1.03115218
H       1.47331005     -0.80322032      1.34757333
