17
b3lypvtz=-215282.5478391
C       2.21391669      0.95925507      0.60181648
C       2.07460813     -0.15638661     -0.42284706
N       0.79462737     -0.87046229     -0.28904017
N      -0.28372010     -0.05682985     -0.83645619
C      -1.27902919     -0.03720843     -0.02823776
C      -2.51992303      0.72322626     -0.34787317
O      -1.29893539     -0.67846190      1.14967725
H       1.43677030      1.71093378      0.46291753
H       3.18102228      1.45349133      0.49696211
H       2.13712602      0.56787910      1.61768728
H       2.17850252      0.25157533     -1.43508775
H       2.86128847     -0.90029113     -0.27703131
H       0.83480148     -1.68738901     -0.89100322
H      -3.37590900      0.04699135     -0.37592049
H      -2.71321062      1.46258620      0.43111445
H      -2.41218531      1.21800548     -1.30881420
H      -0.40052464     -1.08251268      1.19072419
