16
b3lypvtz=-181127.79667022
C       3.25902452      0.90448414     -0.00012815
C       2.65852479     -0.50941218      0.00012367
C       1.20154867     -0.51718708     -0.00006428
C      -0.00286743     -0.48038274     -0.00012485
C      -1.42811799     -0.52664420     -0.00048247
N      -2.15202774      0.51661067     -0.00003090
C      -3.58672902      0.33556070     -0.00037570
H       2.94077539      1.46012154     -0.88176178
H       4.34833802      0.85231808      0.00021633
H       2.94024322      1.46069516      0.88096345
H       3.01472902     -1.06379309      0.87360389
H       3.01499639     -1.06418056     -0.87299788
H      -1.86765660     -1.53383690     -0.00086486
H      -4.00946814      0.83231639      0.87586962
H      -4.00909970      0.83287307     -0.87648429
H      -3.90228441     -0.71680901     -0.00079780
