11
b3lypvtz=-189681.77879791
C      -1.43419111      0.84218760      0.22704237
C      -0.69773590     -0.46878507      0.36253675
N      -1.20649169     -1.62237734      0.54117297
C       0.73742271     -0.37870554      0.27635579
C       1.93392255     -0.24566705      0.19670334
C       3.28963858     -0.11042697      0.10844232
N       4.43733471      0.01074910      0.03278320
H      -1.11605773      1.54000127      1.00379740
H      -1.21005217      1.30701831     -0.73482147
H      -2.50918604      0.68615113      0.30598604
H      -2.22460388     -1.56014542      0.58556725
