15
b3lypvtz=-219531.85438349
C      -1.46967945      1.34609887     -0.31575199
C      -1.27986914      0.03532037     -0.09621599
C      -2.43860939     -0.84919784      0.29685458
C      -0.00129641     -0.65959308     -0.21428982
C       1.21496806     -0.13281641     -0.01393132
N       1.58989434      1.15385472      0.27622376
F       2.29942937     -0.92882202     -0.11759601
H      -2.44507495      1.79343208     -0.18047700
H      -0.69223019      1.99418889     -0.69615839
H      -2.25907216     -1.32614238      1.26351346
H      -2.56823959     -1.65360680     -0.43248775
H      -3.37024290     -0.28822658      0.35295658
H      -0.01686904     -1.72060554     -0.42328256
H       0.84483321      1.72618449      0.64830356
H       2.45421524      1.21947623      0.79397690
