10
b3lypvtz=-246333.3170387
N      -2.43371176      0.88318959      0.43189486
N      -1.61336919      0.01567136      0.20406567
O      -0.36351951      0.64428882     -0.05001128
C       0.63447093     -0.26112712     -0.31989785
N       0.59904518     -1.51920200     -0.37201169
C       1.95071467      0.42908689     -0.58576043
O       2.11272441      1.61712475     -0.56618485
H      -3.31318297      0.38457434      0.60798542
H      -0.32630711     -1.89669433     -0.17998835
H       2.75303535     -0.29701230     -0.80219149
