14
b3lypvtz=-226999.95262664
N      -3.03533113      1.03738947     -1.63549088
C      -2.34406234      0.18268971     -1.29764995
C      -1.48208507     -0.90792806     -0.84924127
C      -0.32256960     -0.43676871      0.02499450
O       0.53719525      0.35624917     -0.77611281
C       1.57506860      0.98444042     -0.06574420
O       2.52923101      0.08378230      0.44008153
H      -2.09000800     -1.62345164     -0.29125707
H      -1.08685278     -1.42605642     -1.72515073
H      -0.69613191      0.14696162      0.87416174
H       0.20742863     -1.30851312      0.41741721
H       2.01425853      1.69261867     -0.77059664
H       1.18160735      1.51467851      0.80626888
H       3.01235146     -0.29599191     -0.30178031
