17
b3lypvtz=-215270.24948172
C      -1.81266832      0.83615459     -0.67928285
C      -0.62996604      0.28289847      0.06249899
C       0.75384222      0.29323684     -0.55581520
C       0.01621826     -1.02413468     -0.36072841
N       0.51216181     -1.99178093      0.58430149
N       1.83628057      0.57894675      0.35690920
O      -0.70730075      0.55169618      1.43735502
H      -1.75444809      0.59242742     -1.74077096
H      -2.73928619      0.41487509     -0.28393289
H      -1.86281973      1.92222994     -0.57545139
H       0.84545258      0.65029183     -1.57826548
H      -0.36295279     -1.46858902     -1.27488593
H       1.20742825     -1.57029199      1.18722270
H      -0.23894559     -2.30586510      1.18874526
H       2.68402407      0.08845098      0.09773175
H       2.04906333      1.56907635      0.37049310
H       0.20391639      0.58037729      1.76387561
