15
b3lypvtz=-214488.82213091
N       3.06501600     -0.66577776     -0.14490248
N       1.70165383     -0.36749829     -0.25250986
C       1.27133475      0.63043491      0.38920918
O      -0.00077502      1.08640920      0.30787822
C      -0.87587260      0.38290177     -0.55139733
C      -2.32379758      0.64852579     -0.33267025
C      -1.72908682     -0.69771063      0.03082728
H       3.44600422     -0.43984676      0.77176300
H       3.17274968     -1.65760118     -0.30369586
H       1.86152878      1.25155231      1.06355562
H      -0.48838882      0.26202382     -1.55363408
H      -2.57892969      1.31070379      0.48263986
H      -2.96662530      0.72263205     -1.19843746
H      -1.59943522     -0.90914509      1.08268143
H      -1.95547621     -1.55770394     -0.58380727
