17
b3lypvtz=-194357.21314552
C      -0.00142059      2.39416227      0.17236276
C       0.02338773      1.21081099     -0.02486120
C       0.03481758     -0.23727014     -0.23006062
C      -1.22248205     -0.91108495      0.36158967
C      -2.53021092     -0.44344320     -0.27204261
C       1.31089677     -0.86675786      0.34155653
O       2.42289479     -0.40182945     -0.41051000
H      -0.01290411      3.44268969      0.33433329
H       0.05007817     -0.42633464     -1.30937674
H      -1.11738900     -1.99092070      0.22718499
H      -1.24699693     -0.72804540      1.43900452
H      -2.67385648      0.62857041     -0.13547074
H      -3.38232146     -0.95776496      0.17447989
H      -2.54294339     -0.64861634     -1.34469268
H       1.22222040     -1.95753149      0.26899991
H       1.40549240     -0.60026562      1.39980696
H       3.23139911     -0.62843863      0.05637407
