11
b3lypvtz=-210581.04526074
C       0.65484257      0.27184840      1.43085775
N      -0.45053909     -0.23719572      1.04637543
C      -0.81609247     -0.16260815     -0.29249634
N       0.04272762     -0.05641830     -1.23532705
N      -0.39026839      0.02782609     -2.51066527
C       1.07688910      0.13530749      2.79235009
N       1.47030067      0.06055528      3.87354533
H       1.32676000      0.82123121      0.77021361
H      -1.88604594     -0.26385588     -0.47595823
H      -1.33018012     -0.30394351     -2.70546385
H       0.30160607     -0.29274693     -3.16851074
