11
b3lypvtz=-212967.38692631
C      -1.20460957      0.25963695     -0.10263110
C      -0.31332329      1.26536405      0.03747389
N       1.01436762      1.11665520      0.38153375
C       1.67192645      0.09971834      0.00237458
O       1.20420524     -0.83532264     -0.88218087
N       0.26697846     -1.71611742     -0.16162309
C      -0.84627366     -1.12705241      0.06937024
H      -2.25676570      0.49736571     -0.18776167
H      -0.65217542      2.29373667     -0.00030072
H       2.69439551     -0.05253096      0.33517113
H      -1.57872564     -1.80145350      0.50857388
