17
b3lypvtz=-194364.14396256
C      -2.48706028     -0.27444380      0.02988532
C      -1.17382975      0.50458000     -0.03836598
C       0.01966345     -0.32764171      0.39548884
C       1.41123205      0.20587005      0.13189198
C       2.10039327      1.27383176      0.48805364
C       1.64454543     -1.00209232     -0.73919704
O       0.28796285     -1.45428858     -0.49669273
H      -2.43887110     -1.16447801     -0.59781032
H      -3.32325656      0.33653652     -0.31242348
H      -2.70413868     -0.59519506      1.05113964
H      -0.99843700      0.86404446     -1.05505246
H      -1.22093073      1.38714617      0.60753453
H      -0.12689635     -0.69070293      1.42055143
H       1.68121826      2.02454944      1.14605485
H       3.11142387      1.43856461      0.13696155
H       2.38535691     -1.71750413     -0.36858244
H       1.83162432     -0.80877645     -1.79943733
