13
b3lypvtz=-239484.64412765
C      -0.83711144      1.37872809      0.62616225
C      -0.11096430      0.33591833      0.22769582
C      -0.50577715     -1.09014777      0.51294670
O      -0.87829570     -1.79094172     -0.67182305
C       1.13230379      0.61032103     -0.55963440
O       1.41195994      1.66380381     -1.07622667
O       1.94972628     -0.46499420     -0.61703934
H      -1.73933285      1.24269523      1.20859369
H      -0.53692398      2.38847100      0.38232916
H      -1.31632298     -1.09776183      1.24934690
H       0.33274225     -1.64760034      0.92681482
H      -1.62331830     -1.32994634     -1.07104825
H       2.72131444     -0.19844530     -1.13801764
