13
b3lypvtz=-169500.86571544
C      -1.14809480     -1.65255050      0.05188916
C      -0.64346309     -0.42057457      0.15552344
C       0.62948964     -0.14184941      0.94664819
C       1.73797657      0.32962765      0.12128193
C       2.65010209      0.70889570     -0.55803503
C      -1.27741514      0.70452265     -0.44913416
C      -1.78736253      1.67939529     -0.93324693
H      -2.05700207     -1.84343547     -0.50038369
H      -0.65666955     -2.49712676      0.51589795
H       0.41377292      0.60813075      1.71366081
H       0.92608765     -1.05400139      1.46825080
H       3.45536209      1.04691287     -1.16082439
H      -2.24278381      2.53205318     -1.37152808
