16
b3lypvtz=-227741.31445763
N      -2.20429903     -0.55955917     -0.42161593
C      -1.43964910      0.67038269     -0.16797864
C      -0.04811488      0.28716699      0.26974893
O      -0.05209272     -0.67652177      1.29794428
C       1.07720061      1.27607579      0.31438109
C       1.09548758      0.15362591     -0.70568759
O       1.97081250     -0.91976060     -0.54488193
H      -1.97281785     -0.95294382     -1.32595553
H      -3.20057672     -0.38742009     -0.40920091
H      -1.93336122      1.20699864      0.64615324
H      -1.38502404      1.35043691     -1.02585263
H      -0.82099605     -1.23598723      1.09539733
H       1.76597265      1.17769591      1.14272077
H       0.89291897      2.28995206     -0.01768624
H       0.94477399      0.40582589     -1.74865625
H       1.66243331     -1.40126312      0.23689601
