17
b3lypvtz=-191968.18748388
C       0.49213275      1.69818854      0.19896737
C       0.29652993      0.39828896     -0.08591935
C       1.46702449     -0.46946825     -0.40715103
N       2.61485975     -0.44966665      0.12962961
N      -0.94793841     -0.21099510     -0.23583410
C      -2.12567722      0.62668472     -0.12984534
C      -1.12618463     -1.54284830      0.33185576
H       1.48553555      2.11679222      0.14428201
H      -0.31360663      2.37414116      0.43845716
H       1.30297269     -1.18393715     -1.21664585
H       2.64007680      0.23750957      0.88729509
H      -2.03160155      1.48527359     -0.79377635
H      -2.29892429      0.99739486      0.89112438
H      -2.99898853      0.04895672     -0.43175304
H      -1.97285963     -2.03342354     -0.14917690
H      -0.24123582     -2.15330101      0.16779829
H      -1.31565224     -1.51019233      1.41405929
