19
b3lypvtz=-195130.96968874
C      -2.36157588     -0.55812136     -0.18229999
C      -1.12165094     -0.45262743      0.70743048
C       0.06535305      0.29312848      0.08579099
C      -0.25746208      1.74072752     -0.26527884
C       0.80402082     -0.51063340     -1.01531866
O       1.94230985     -0.74166149     -0.15585554
C       1.37972150      0.09306063      0.88083597
H      -3.12706641     -1.17122093      0.29539504
H      -2.80418573      0.41801468     -0.38357956
H      -2.12532104     -1.02076712     -1.14322693
H      -1.38931157      0.04123116      1.64753390
H      -0.78847095     -1.45887144      0.97702635
H       0.62564972      2.25479493     -0.64799770
H      -0.60812315      2.28759447      0.61384424
H      -1.03397883      1.80821959     -1.02897324
H       0.33654881     -1.44818778     -1.32783209
H       1.07973171      0.06568268     -1.90385903
H       1.97105721      1.00132556      1.03336640
H       1.29092690     -0.44190874      1.83044123
