16
b3lypvtz=-204437.21353718
C      -1.65284566     -0.44494686      1.17629943
C      -1.14601378     -0.08648111     -0.19978257
N      -1.72965525      0.69417255     -1.01424113
C       0.16325167     -0.71716946     -0.62837413
C       1.36187237     -0.10784483      0.06793862
C       2.09025559      1.01983320     -0.51462661
O       2.62703550     -0.30941290     -0.56461049
H      -2.57480088      0.08589605      1.41122558
H      -1.84037863     -1.51970935      1.24340287
H      -0.91146953     -0.20824351      1.94322462
H      -2.59367513      1.06156595     -0.61216644
H       0.14519345     -1.79081407     -0.41559613
H       0.27585779     -0.58387338     -1.70259148
H       1.39687699     -0.22485366      1.14856495
H       2.62786634      1.70949710      0.12790077
H       1.76072916      1.42238429     -1.46656785
