18
b3lypvtz=-181891.4229766
C       2.25841258     -0.41901840      0.33823232
C       1.25038327      0.68463097      0.21174230
C      -0.00834887      0.60685441     -0.22811266
C      -0.85966025      1.83977685     -0.39554400
C      -0.66264481     -0.67068174     -0.65574733
C      -1.84293485     -1.20544223      0.07003552
N      -0.55855722     -1.92408022      0.10856531
H       1.90221198     -1.36796034     -0.05620032
H       2.55607582     -0.56869247      1.38091085
H       3.17070906     -0.15319101     -0.20283174
H       1.61459102      1.66931627      0.49299468
H      -1.76137131      1.79152284      0.22024869
H      -0.31130144      2.74406372     -0.13256047
H      -1.19727175      1.93959761     -1.43167801
H      -0.64772353     -0.83890234     -1.73019910
H      -2.63562947     -1.70513191     -0.47269953
H      -2.16265597     -0.68399181      0.96458755
H      -0.10428426     -1.73867020      0.99650186
