14
b3lypvtz=-224581.0514021
C       2.29260477      0.59609797      0.13815903
C       1.62169076     -0.55023058     -0.54400747
N       0.38808640     -0.85133842     -0.59384435
O      -0.41248319      0.06596028      0.10754958
C      -1.76002238     -0.29444122      0.08718872
N      -2.29188611     -1.30793941     -0.43598030
N      -2.44809518      0.65598585      0.80712940
H       1.59289867      1.20340382      0.70264871
H       3.06759709      0.22098589      0.81035329
H       2.79482326      1.22376799     -0.60232254
H       2.24171954     -1.25512040     -1.09008010
H      -1.58938735     -1.90614612     -0.85704309
H      -2.05389944      1.58238723      0.80562408
H      -3.44364684      0.61662712      0.66462504
