17
b3lypvtz=-194358.1391236
C      -1.47821151      1.38917280     -0.07064817
C      -0.65491715      0.12593224     -0.15596188
C       0.77803346      0.31992843     -0.56466251
C       1.83693774     -0.68139841     -0.20645954
C       1.81633540      0.66302470      0.47255410
C      -1.31773789     -1.16327740     -0.38855789
O      -0.86293029     -0.80198003      0.92320068
H      -1.52712984      1.88275026     -1.04371365
H      -1.02853648      2.08778393      0.63713091
H      -2.49268126      1.16865142      0.25913784
H       0.88455911      0.81307056     -1.52427119
H       2.61301352     -0.88219077     -0.93177903
H       1.53246068     -1.53070077      0.38853063
H       2.57798190      1.38704883      0.21901409
H       1.49654306      0.68359497      1.50537915
H      -0.76639847     -1.97060118     -0.85991750
H      -2.39642897     -1.20229858     -0.50598604
