12
b3lypvtz=-223842.80873873
N       2.22549339      0.87694862     -0.15622650
C       1.38972758      0.01413764      0.22836634
N      -0.01731181      0.02278795      0.06185156
C      -0.74382638     -1.19637915      0.03764698
N      -0.28914169     -2.36041163     -0.13657780
C      -0.72672094      1.22984330      0.07356681
O      -1.91488917      1.31982374     -0.08634536
H       1.80826871      1.62660332     -0.70660152
H       1.74077371     -0.85343328      0.78243147
H      -1.80543497     -1.03398415      0.18577838
H       0.71365426     -2.38927614     -0.31453488
H      -0.07532969      2.09342677      0.26948751
