16
b3lypvtz=-232777.39034726
C      -2.56595284     -0.68673759     -0.27877928
C      -1.34233296      0.16598233     -0.01879231
O      -1.25591769      1.29843640     -0.43998247
C      -0.23804147     -0.47513613      0.80732208
C       1.02422295      0.37180680      0.95325193
C       1.85832891      0.44340007     -0.30945643
F       2.28218656     -0.84476425     -0.67551889
H      -2.28964241     -1.56151496     -0.87261888
H      -2.98153561     -1.05988163      0.66009850
H      -3.31668190     -0.10803378     -0.81142500
H       0.00077082     -1.45076504      0.37461331
H      -0.66506089     -0.69449715      1.79193268
H       0.75316418      1.39250716      1.23212739
H       1.64192466     -0.03472795      1.75691408
H       1.29186038      0.85035788     -1.14655832
H       2.75560332      1.04493985     -0.15430841
