17
b3lypvtz=-215284.28220625
C       0.71938912      1.27380699      1.11304069
C       0.50970906      0.86502571     -0.35086749
C       1.37733451     -0.33201134     -0.75485054
O       1.29382323     -1.36915212      0.22107533
N      -0.90540494      0.72815944     -0.72001602
C      -1.85429650     -0.09335469     -0.13773475
N      -1.72825181     -1.11934007      0.59788688
H       0.20172476      2.21161280      1.31582011
H       1.78119574      1.41368023      1.32249047
H       0.33969013      0.51792403      1.79602726
H       0.86846908      1.68235790     -0.98137001
H       1.05349220     -0.68663478     -1.73715148
H       2.41471084      0.01430177     -0.83538354
H       1.67118472     -2.17436049     -0.14303888
H      -1.29442465      1.54487294     -1.16038907
H      -2.86258792      0.22342200     -0.41474239
H      -0.75084557     -1.35217530      0.76619542
