18
b3lypvtz=-181891.28191874
C       2.44846717     -0.71434887     -0.11502730
C       1.19521939     -1.05636575      0.18606031
N       0.03428212     -0.54588419     -0.39374330
C      -1.12395792     -0.13130487      0.37989804
C      -2.47362242     -0.65488535     -0.03690441
C      -0.34866499      0.86650682     -0.42066207
C       0.46979536      1.93780595      0.25366696
H       3.27635155     -1.23424645      0.34324369
H       2.67773856      0.06574178     -0.82774844
H       1.00705140     -1.86558994      0.88551314
H      -0.97012576     -0.05810181      1.45527028
H      -2.63816802     -1.66267031      0.35071022
H      -3.27291494     -0.01461219      0.34272992
H      -2.54812175     -0.69694760     -1.12357747
H      -0.77696452      1.16391001     -1.37402787
H       1.32262494      2.23512382     -0.35936556
H       0.85410662      1.60775942      1.21738454
H      -0.14926678      2.82304453      0.41347730
