14
b3lypvtz=-224591.76538591
C       2.95057353     -0.38913644      0.10584864
N       1.68787591      0.29347735     -0.12780563
N       0.60060532     -0.51382193     -0.11116736
C      -0.55056361      0.06662086     -0.03632932
N      -0.74953964      1.43720724      0.07598984
C      -1.72655277     -0.80799166     -0.00731841
O      -2.86160292     -0.38288972      0.07108749
H       3.06039462     -1.18558518     -0.62734368
H       3.76227741      0.32473675     -0.02886661
H       3.01999061     -0.82612605      1.10757644
H       1.57053684      1.15428624      0.40236174
H      -1.73559004      1.66506760      0.04637804
H      -0.21178414      1.99317474     -0.57630099
H      -1.49226613     -1.88407980     -0.05130620
