13
b3lypvtz=-211325.39930791
C      -1.34973271      1.59755724     -0.04979787
C      -0.58527309      0.50796289      0.08909423
C      -1.16037045     -0.84822531      0.31003282
N      -2.22199083     -1.30859897     -0.20512095
N       0.80415279      0.59327011      0.12271655
N       1.57129739     -0.48366730     -0.07280138
N       2.78953925     -0.21514300     -0.12351536
H      -2.42233199      1.52458429      0.03608234
H      -0.92466932      2.57863266     -0.21160456
H      -0.60504415     -1.48570347      0.99568104
H      -2.62847951     -0.63882901     -0.86225957
H       1.27690263      1.49294907      0.14654560
H       3.26629698     -1.10840019     -0.25691587
