12
b3lypvtz=-179638.90241893
N      -2.96380449      0.00724682      0.00004491
C      -1.81106814     -0.02304811      0.00000069
C      -0.38904335     -0.03362426     -0.00000332
C       0.39953986     -1.13006999     -0.00000781
C       1.83057858     -0.69457410     -0.00000475
C       1.74006064      0.80319277     -0.00000237
C       0.45243823      1.17534787     -0.00000789
H       0.06632992     -2.15563763     -0.00000768
H       2.37074947     -1.07799626      0.87379411
H       2.37075431     -1.07799449     -0.87380145
H       2.59720608      1.45830439     -0.00000015
H       0.06177888      2.18117999     -0.00000929
