19
b3lypvtz=-195155.77056997
C      -3.59416799      0.04982389      0.00000931
C      -2.20552851     -0.58782443     -0.00000563
C      -1.07032633      0.43735560     -0.00000117
C       0.32038849     -0.19814663     -0.00001510
C       1.44512749      0.83047762     -0.00001107
C       2.83751463      0.25715902     -0.00000749
O       3.10436064     -0.91731278      0.00003187
H      -4.38038670     -0.70676046      0.00000689
H      -3.73993939      0.67886246      0.88116944
H      -3.73995047      0.67887958     -0.88113674
H      -2.10181619     -1.23806600      0.87406471
H      -2.10182635     -1.23804694     -0.87409138
H      -1.17465009      1.08886741     -0.87499388
H      -1.17464040      1.08884904      0.87500640
H       0.43178971     -0.84890368     -0.87078844
H       0.43179999     -0.84892062      0.87074399
H       1.37725238      1.49970856      0.86775828
H       1.37724312      1.49972816     -0.86776380
H       3.64922500      1.01631822      0.00001583
