13
b3lypvtz=-213773.73556487
N      -1.95818630      0.03715252      0.59465256
C      -1.19504537     -0.40786762     -0.58071094
C       0.22372584      0.02267094     -0.50223198
C       1.01227192      0.87825054     -1.19021462
N       2.29492599      0.86759606     -0.65463806
C       2.22524617      0.02578968      0.31581299
O       1.00433680     -0.54167499      0.48175228
H      -2.92111329     -0.26826714      0.51341028
H      -1.58611917     -0.39749668      1.43130318
H      -1.62825635      0.05508175     -1.46818598
H      -1.22388578     -1.49585013     -0.73885217
H       0.75218479      1.50202515     -2.02770557
H       2.99991475     -0.27751008      0.99920802
