16
b3lypvtz=-227724.15587622
C      -1.51571139     -1.76086888      0.07234212
O      -1.62153112     -0.41135670     -0.34718239
C      -0.69054431      0.47196941      0.27551617
C      -1.19152522      1.88774819      0.02625704
C       0.68662428      0.26575151     -0.29347341
N       1.63937381     -0.08831667      0.46376161
O       2.84477526     -0.22215137     -0.24419492
H      -0.53344567     -2.18840979     -0.15165235
H      -2.27730874     -2.31904975     -0.46894658
H      -1.69887405     -1.85697552      1.14907916
H      -0.64690817      0.27118627      1.35226656
H      -2.19325483      2.00224078      0.43954292
H      -1.23732380      2.09201129     -1.04434039
H      -0.53001261      2.61739662      0.49372800
H       0.83662282      0.41863048     -1.36256255
H       3.46483373     -0.49177187      0.44106802
