15
b3lypvtz=-193588.06131074
C      -1.50647143      1.25647102      0.80836317
C      -0.78665193      0.34003003      0.18259974
C      -1.09153344     -0.88431823     -0.67279732
C       0.35839549     -1.39797316     -0.38899619
C       0.66777612     -0.01671149      0.19979891
C       1.83478717      0.84396699     -0.01929790
O       1.56978882      0.25506874      1.26102978
H      -2.58419965      1.29729554      0.71483854
H      -1.03476873      1.98876955      1.45161196
H      -1.25708037     -0.64231196     -1.72357610
H      -1.90622157     -1.51931766     -0.32790088
H       0.95040830     -1.71349962     -1.24636806
H       0.38445529     -2.17388030      0.37516122
H       1.70210736      1.92012570     -0.07152751
H       2.69920854      0.44628487     -0.54293937
