16
b3lypvtz=-202037.89318729
C      -0.54575973      2.09007502      0.15158318
N       0.05467560      1.10418776     -0.35628050
C       0.13099945     -0.12892339      0.39234567
C       1.54224750     -0.68409476      0.37818177
N       2.53012140     -0.27742929     -0.29519710
C      -0.83789931     -1.17663099     -0.23353752
N      -2.25620194     -0.88128107     -0.14726130
H      -0.98957423      2.07637946      1.15455165
H      -0.62932283      3.01517585     -0.41469024
H      -0.16946011      0.01023157      1.44450793
H       1.68443689     -1.55463771      1.02447084
H       2.25657564      0.53370301     -0.85587480
H      -0.65389201     -2.13629926      0.25379915
H      -0.56833880     -1.29377085     -1.28409136
H      -2.48380649     -0.02059411     -0.62911474
H      -2.56147002     -0.78723223      0.81389837
