10
b3lypvtz=-202153.28273552
C       2.17554672      0.19945648      0.18371746
C       0.75965156     -0.10584922      0.21422430
C      -0.41649437     -0.36544762      0.24501143
C      -1.81814055     -0.65681761      0.27407218
O      -2.30534741     -1.71389777      0.60264307
C      -2.68183870      0.46478274     -0.14175004
N      -3.36653154      1.33234412     -0.46409391
H       2.50342887      0.55478712      1.16299392
H       2.75909631     -0.68795756     -0.06581369
H       2.39062912      0.97859931     -0.54892849
