16
b3lypvtz=-181132.72248154
C      -1.89391173     -0.44174560      0.65457335
C      -0.61264832     -0.01082662     -0.01059879
C      -0.31594952      1.41641097     -0.31930815
N       0.39347648      0.74916233      0.77809317
C       1.72410776      0.21466752      0.41317008
C       1.46671016     -0.85132011     -0.62539406
C       0.16187908     -0.98205591     -0.84147006
H      -2.66173296     -0.66222392     -0.09092434
H      -2.26866513      0.34507219      1.30816821
H      -1.73810582     -1.33956120      1.25626077
H       0.22483584      1.63088970     -1.23532478
H      -1.00133874      2.19259314      0.00250750
H       2.36953648      1.01897072      0.04691211
H       2.20437913     -0.19436266      1.30732417
H       2.25214913     -1.40408967     -1.12268321
H      -0.30482187     -1.68148090     -1.52130600
