15
b3lypvtz=-212129.60458118
C       3.20852957      0.22079666     -0.01782197
C       1.90484775     -0.50120470      0.04396311
N       0.79664240      0.11826312     -0.04381650
N      -0.32915611     -0.69681655      0.02038265
C      -1.42834454     -0.01137259      0.00667066
N      -1.52203123      1.35622141      0.09575437
N      -2.62943528     -0.68608427     -0.09830116
H       3.81743215     -0.14729667     -0.84871855
H       3.04943374      1.29041874     -0.14379035
H       3.78980265      0.05359781      0.89368468
H       1.91061390     -1.58661454      0.16579313
H      -2.27019285      1.77745868     -0.43161959
H      -0.61946302      1.79703260     -0.01953870
H      -3.37495800     -0.31939019      0.47435975
H      -2.51175114     -1.68379350     -0.00483754
