15
b3lypvtz=-170279.29507071
C       3.51581852     -0.01894900     -0.20418729
C       2.33200871      0.13793920     -0.05564390
C       0.94214147      0.36725920      0.11590639
C       0.04266477     -0.60048668      0.33421594
C      -1.41577459     -0.42016584      0.48542608
C      -2.13190552      0.85322827      0.13486428
C      -2.31379707     -0.35468868     -0.73975308
H       4.55860803     -0.16703708     -0.33299444
H       0.62171542      1.40260616      0.06730539
H       0.39702924     -1.62444662      0.40141633
H      -1.83801458     -0.98506254      1.30908046
H      -2.95316447      1.15533404      0.76950776
H      -1.55686284      1.67701691     -0.26299285
H      -3.25494011     -0.88567104     -0.70676119
H      -1.82670899     -0.35205029     -1.70470488
