12
b3lypvtz=-226248.71210226
C      -1.17721407      0.81052970      0.08329913
C      -1.19317209     -0.67569897     -0.07548706
N      -0.19239719     -1.43944313     -0.14376635
C       1.12674068     -0.83655885     -0.05695851
C       1.25232565      0.67406311      0.01864646
O       2.31566382      1.22676258      0.02907875
O       0.11898535      1.41453231      0.06930338
H      -1.75798055      1.27329783     -0.71976384
H      -1.66414625      1.08388608      1.02521217
H      -2.18745726     -1.12105862     -0.13185158
H       1.63962234     -1.24734649      0.81658279
H       1.71902956     -1.16296554     -0.91429535
