18
b3lypvtz=-205194.74466833
C       2.64524274     -0.94328572     -0.07027170
N       1.97390307      0.34249777     -0.22232427
C       0.70330008      0.41822471      0.44191145
C      -0.26239694      1.47830271      0.00099781
C      -0.52982280      0.03495894     -0.33859017
C      -1.65956177     -0.70541659      0.32694283
O      -2.95256513     -0.32503042     -0.14372706
H       2.79308494     -1.25012910      0.97643160
H       3.62059859     -0.90517970     -0.55596512
H       2.05813607     -1.72065253     -0.56244642
H       2.57569626      1.09099443      0.09904650
H       0.68516648      0.16056825      1.50307427
H       0.05824973      2.12905221     -0.80019138
H      -0.89024700      1.94479030      0.74786611
H      -0.33266830     -0.24401249     -1.36800876
H      -1.67073764     -0.48891575      1.39639835
H      -1.51475772     -1.78756751      0.21502113
H      -2.98126666     -0.46211250     -1.09546118
