11
b3lypvtz=-236283.56623069
O      -1.87989955      0.82519214      0.12669755
C      -1.21207331     -0.33519174     -0.32781554
C       0.26991548     -0.25211211     -0.13909743
C       1.08328172      0.77676529      0.22100636
N       2.36367914      0.27738251      0.23470226
N       2.40348986     -0.92105107     -0.07451929
O       1.00058497     -1.33786668     -0.33873519
H      -1.86874115      0.83554196      1.08916139
H      -1.58465741     -1.24670833      0.15127034
H      -1.43263295     -0.42240468     -1.39358300
H       0.85715320      1.80035271      0.45071255
