17
b3lypvtz=-191966.84413042
C       0.73692599     -1.26578585      0.26045035
C      -0.68526448     -1.26020719     -0.30887983
N      -0.90794260     -0.03447617     -1.07386144
C      -0.98119271      1.12991829     -0.19612070
C       0.31733681      1.29172204      0.56402548
C       1.16894907      0.09468239      0.79092815
N       1.59118964      1.15407040     -0.14667560
H       0.79787604     -2.00118815      1.06549052
H       1.44368394     -1.58838283     -0.50944082
H      -0.83066356     -2.11886506     -0.96539882
H      -1.40791445     -1.35437598      0.51890214
H      -1.74451240     -0.10481371     -1.63627589
H      -1.80190311      1.05331926      0.53765022
H      -1.16839003      2.01884274     -0.80427401
H       0.30302102      2.07910206      1.31013493
H       1.77784787      0.06504720      1.68740068
H       1.39095296      0.84139057     -1.09405535
