15
b3lypvtz=-240255.14109173
C      -0.27614639     -1.28467047      0.89375453
C       0.41652549     -0.45755446     -0.20151102
C      -0.56179203     -0.02895792     -1.31248450
O      -1.73885494      0.60851121     -0.85125105
C       1.16040683      0.71030067      0.41219167
O       2.34317351      0.76313146      0.62000448
O       0.33224822      1.74633075      0.74064128
H       0.43831191     -1.60518358      1.65204774
H      -1.06814229     -0.71210062      1.37234605
H      -0.72574588     -2.17443420      0.45131802
H       1.19399863     -1.06585560     -0.66679151
H      -0.89432302     -0.92863011     -1.83244977
H      -0.03439058      0.59538173     -2.04434073
H      -1.47506002      1.39642834     -0.36292109
H       0.88969057      2.43720279      1.12964591
