17
b3lypvtz=-215271.25799612
C       0.71509687      2.11023427      0.13562486
N      -0.01145365      1.02466575     -0.52113656
C      -0.13735954     -0.18416452      0.15381423
C      -1.29328383     -0.84334674      0.31372411
N      -2.52425913     -0.23494450     -0.10673862
O       1.01889535     -0.71312213      0.66119534
C       2.01575833     -1.04933150     -0.30713702
H       0.79360419      2.94914733     -0.55497770
H       0.23113948      2.45788714      1.05698463
H       1.72241242      1.78709045      0.39013281
H      -0.93160041      1.30712509     -0.83615997
H      -1.27175519     -1.83523520      0.75137277
H      -3.18225185     -0.15526351      0.66059806
H      -2.98283927     -0.78241201     -0.82627976
H       1.65062463     -1.83682305     -0.97231077
H       2.30748113     -0.18555195     -0.90645941
H       2.87361346     -1.41490591      0.25272099
