13
b3lypvtz=-192840.04754675
C      -2.14200381     -0.71132903     -0.56443295
C      -0.71006921     -0.42071071     -0.26910713
C      -0.25711706      0.15392282      0.84768001
C       1.15963677      0.43732786      1.12894198
O       1.51693268      0.96445774      2.16734774
C       2.14856884      0.06812438      0.12041527
C       2.99421742     -0.21915628     -0.68246376
H      -2.45490170     -0.20441504     -1.48164758
H      -2.79910145     -0.39933401      0.24629565
H      -2.28822674     -1.78085056     -0.74006066
H       0.00905452     -0.70403255     -1.03171745
H      -0.92986083      0.45703562      1.64211726
H       3.75287056     -0.46764024     -1.38326838
