15
b3lypvtz=-216921.10916165
C       1.78808594      0.95087480     -0.26075292
C       0.95008600     -0.26097187      0.06922447
O       1.44014619     -1.33062327      0.35529928
C      -0.55700350     -0.12131370      0.00921098
C      -1.32765301     -1.37966979     -0.29238126
C      -1.17865131      0.96529085      0.79253462
O      -1.03150499      1.08652540     -0.61626637
H       1.66693381      1.19576572     -1.31804567
H       2.83099203      0.72950334     -0.04985803
H       1.46883625      1.83256802      0.29547588
H      -1.10809875     -2.14342031      0.45198149
H      -1.04383216     -1.77604968     -1.26815910
H      -2.39672152     -1.17311580     -0.29748926
H      -0.56751502      1.63560635      1.38860983
H      -2.19332696      0.81982994      1.14973108
