16
b3lypvtz=-181144.432166
N       2.40923531     -0.04026671      0.14469221
C       1.03157738     -0.09246511     -0.04376794
C       0.24221314     -1.16603770     -0.19748669
C      -1.18266935     -0.77105121     -0.38806599
C      -1.83822964     -0.05828690      0.77560200
C      -1.19175880      0.74299240     -0.32523192
C       0.25253807      1.20120300     -0.16465155
H       2.82918648     -0.89513539      0.47641854
H       2.73578688      0.75671723      0.66871772
H       0.57162217     -2.19490653     -0.14209868
H      -1.80924897     -1.31044574     -1.08667234
H      -1.34759167     -0.12042086      1.73891329
H      -2.92004907     -0.03563548      0.81778022
H      -1.84102697      1.31670774     -0.97094139
H       0.39918139      1.84308299      0.71137734
H       0.59212165      1.77378227     -1.03398183
