15
b3lypvtz=-219529.5213221
C      -2.33743130     -0.56217019     -0.20144447
C      -1.54390083      0.44650579      0.18154524
C      -0.10100396      0.60892903      0.03332057
C       0.42355345      2.02242174     -0.03765540
C       0.74049025     -0.43934932      0.01076905
N       0.47565276     -1.79023598      0.05625595
F       2.07367643     -0.23624364     -0.08892472
H      -3.39898541     -0.52978522      0.00140921
H      -1.98274568     -1.41152469     -0.77015888
H      -2.02741046      1.29336828      0.66401786
H       0.04701410      2.61240044      0.80272375
H       0.09357502      2.52364917     -0.95167865
H       1.50963681      2.05707505     -0.01200331
H       1.22256521     -2.32314151      0.47971405
H      -0.43429142     -2.01268096      0.43665875
