11
b3lypvtz=-212976.37702864033
C       1.94691153     -0.26188701      0.00101625
N       0.65808671     -0.07556724     -0.00171800
C      -0.13241531      1.01266254     -0.15305021
C      -1.48695254      0.59892207     -0.06188462
O      -2.54735638      1.20273385     -0.13302853
C      -1.33856622     -0.89447269      0.16444555
N      -0.13036594     -1.29550506      0.20147373
H       2.60193773      0.58192582     -0.14159901
H       2.30211940     -1.26624060      0.14795996
H       0.28023518      1.99153111     -0.31210832
H      -2.15363415     -1.59410281      0.28849321
