13
b3lypvtz=-237026.21821488
C       2.03300810     -1.02216593     -0.17487402
O       0.68882381     -0.99377009     -0.66538915
C      -0.08864975      0.02022118     -0.25132536
N       0.38470869      0.91577678      0.53090695
O      -0.58906268      1.88624311      0.88825189
N      -1.33683724     -0.01146501     -0.87105019
C      -2.39090274     -0.05422945     -0.17557933
H       2.04805329     -1.07315911      0.91401698
H       2.57780351     -0.13343278     -0.49337921
H       2.47684177     -1.91575967     -0.60472250
H      -0.05306390      2.53037817      1.35955607
H      -3.35017747     -0.02895222     -0.68702682
H      -2.40054540     -0.11968495      0.91289990
