16
b3lypvtz=-202017.2551286018
C      -2.13915081     -1.34214934     -0.08178679
C      -1.85490744     -0.01796145     -0.21180817
C      -0.59807730      0.61291166     -0.35567655
N       0.53109895     -0.13683060     -0.11190392
C       1.80186700      0.11614494     -0.33211258
N       2.82055519     -0.59990555      0.29694749
N      -0.36657639      1.95181346     -0.76128449
H      -3.14075323     -1.67530508      0.14496081
H      -1.39898488     -2.12076911     -0.22861592
H      -2.69064024      0.67710748     -0.17877885
H       0.31034814     -1.02015777      0.34588521
H       2.05726498      1.01227094     -0.87133654
H       3.60839773     -0.80261547     -0.30351626
H       2.52279584     -1.43271692      0.78653019
H      -0.80687515      2.63334124     -0.15412768
H      -0.65636235      2.14482157     -1.71276939
