15
b3lypvtz=-214514.83738103
C       1.25822009      1.77622471     -0.09257641
N      -0.01376608      1.09024292      0.00822356
C      -0.13590747     -0.16351730     -0.07259819
C       0.90392305     -1.22994183     -0.24840391
N       2.06408761     -1.26176434      0.25748064
O      -1.35252943     -0.75867711     -0.02753417
C      -2.48734750      0.10064224      0.12136806
H       1.09669343      2.72666179     -0.60202503
H       1.63687658      2.01678433      0.90544266
H       2.03523920      1.22468449     -0.63124631
H       0.58640037     -2.06879793     -0.86859763
H       2.24075101     -0.44506310      0.84239195
H      -3.35133707     -0.55825416      0.13228183
H      -2.42422052      0.66699257      1.05033442
H      -2.54848626      0.80324672     -0.70961045
