17
b3lypvtz=-171045.8566907
C      -3.12407549     -0.50176049     -0.13590403
C      -2.12456926      0.13405547      0.05627834
C      -0.89385501      0.88714110      0.27465839
C       0.33529830      0.23834776     -0.36433526
C       1.72374420      0.87606720     -0.09561931
C       2.31649030     -0.55307354     -0.00242002
C       0.87975193     -1.09310791      0.21532364
H      -4.01142211     -1.05932263     -0.30203236
H      -1.01810451      1.90041628     -0.12145511
H      -0.72597413      0.99646455      1.35116669
H       0.16891378      0.13631743     -1.43835480
H       1.74694761      1.38363936      0.87095789
H       2.12663522      1.55018283     -0.85102923
H       2.73266300     -0.88081769     -0.95513911
H       3.05039958     -0.74318610      0.77938326
H       0.59689175     -2.01648909     -0.28717275
H       0.64186584     -1.18890752      1.27640977
