17
b3lypvtz=-215282.02545628
C       2.25627561     -0.12720145     -0.83177092
C       1.25480558     -0.05306178      0.05747873
N       0.94591140      1.12898492      0.76481394
N       0.41167770     -1.11593037      0.36924457
C      -1.03625437     -0.95259350      0.56998638
C      -1.80713129     -0.22509062     -0.53624340
O      -1.75858534      1.18690194     -0.43295115
H       2.37658915     -0.99332224     -1.46508666
H       2.97541195      0.67205241     -0.92944511
H       1.63750422      1.84985716      0.61968873
H       0.80312212      0.97279819      1.75514280
H       0.64044498     -1.93502267     -0.17121874
H      -1.22610117     -0.43894273      1.51528360
H      -1.43430415     -1.96237933      0.68214164
H      -2.86209069     -0.50288226     -0.46931097
H      -1.43930274     -0.56584599     -1.51457834
H      -0.86660395      1.43662931     -0.14590509
