19
b3lypvtz=-195143.86827775
C      -1.76364647     -0.40387866      1.13416130
C      -1.17097494     -0.20316951     -0.26916275
C      -2.01381417      0.79453057     -1.07903359
C       0.25977552      0.25113868     -0.18525955
C       1.31364854     -0.39537563     -0.67496569
C       2.72712782      0.08688980     -0.56986102
O       3.57345728     -0.84688125      0.10741757
H      -1.19675436     -1.14349369      1.70104987
H      -2.79961140     -0.74301118      1.07292142
H      -1.75320015      0.53167480      1.69909546
H      -1.18929397     -1.16582031     -0.78874516
H      -2.01174225      1.77988314     -0.60617847
H      -1.62607415      0.90903197     -2.09187269
H      -3.05115027      0.46073059     -1.14647377
H       0.42035116      1.20353875      0.31967213
H       1.17809330     -1.35041715     -1.17641197
H       3.17126211      0.19649046     -1.56157733
H       2.75545547      1.06949633     -0.08436553
H       3.17669091     -1.03155774      0.96488976
