14
b3lypvtz=-203692.15035411
C      -2.89315906      0.30063327      0.00001636
N      -1.62295039      0.32532302      0.00001675
C      -0.95480766     -0.89766970      0.00000531
C       0.37884334     -1.04018805      0.00000548
C       1.45872371     -0.01686938      0.00001378
C       1.15049133      1.46003514      0.00000278
O       2.60966252     -0.41625199      0.00000899
H      -3.47408948     -0.62895443     -0.00004978
H      -3.44371510      1.23644873     -0.00002397
H      -1.57273395     -1.79888393     -0.00000266
H       0.77340824     -2.04860085     -0.00000290
H       0.55244585      1.73004404     -0.87049871
H       0.55243813      1.73006203      0.87049311
H       2.09015053      2.00722611      0.00000047
