10
b3lypvtz=-272109.3212945
N       0.84410801     -0.04052483      0.09178225
C       0.40329804      0.81132084      0.90362093
O       1.05228556      1.66425280      1.71655043
O      -0.96073562      0.90551774      0.99325124
C      -1.66070392      1.75054370      1.79921324
O      -1.25621316      2.56317761      2.57345491
O      -2.95289157      1.48614768      1.54685215
H       1.85823691     -0.06754866      0.06603701
H       2.00047018      1.53790074      1.59620586
H      -3.46555445      2.07921238      2.11193199
