16
b3lypvtz=-181140.94913701
C       0.94970542      0.38688034      0.87116630
C       2.07853735     -0.27650053      0.12392525
N       1.78153529     -0.89652056     -0.94096853
C       0.33556926     -0.79444289     -1.17027374
C      -0.24722357      0.03392465     -0.01272670
C      -1.59902233     -0.27061949      0.56682797
C      -1.38347721      0.99217805     -0.22834284
H       1.11744172      1.46459816      0.96245314
H       0.86647856     -0.00542776      1.88952703
H       3.10930362     -0.23543406      0.46793511
H       0.16763449     -0.33257368     -2.14719489
H      -0.08306032     -1.80343731     -1.22092486
H      -2.17900921     -1.06418350      0.11290555
H      -1.72880345     -0.18179995      1.63782617
H      -1.36718529      1.93346695      0.30606337
H      -1.81832431      1.04989159     -1.21819834
