10
b3lypvtz=-178824.98395161
C       3.48624095     -0.11078549      0.15321281
C       2.30037954      0.00988615     -0.01935702
C       0.95822616      0.14763192     -0.21512686
C      -0.22789800      0.27015690     -0.38857745
C      -1.66047853      0.43515014     -0.60348887
C      -2.43239060     -0.78170773     -0.32733545
N      -3.05407139     -1.72468026     -0.11598207
H       4.53106576     -0.22022697      0.30610679
H      -2.04702432      1.23785204      0.03212554
H      -1.85414959      0.73672331     -1.63757742
