19
b3lypvtz=-195142.89669228
C      -0.43302717      1.92002925     -0.48912149
C      -0.20392527      0.68674769     -0.04678855
C      -1.21603329     -0.05868739      0.79593258
C      -2.24741887     -0.83190788     -0.04154388
C       1.10478197     -0.01236638     -0.37648578
C       2.09283308      0.03132125      0.79022413
O       0.90656070     -1.36081708     -0.82219422
H       0.27286198      2.43416167     -1.13028719
H      -1.33310992      2.46279897     -0.22688786
H      -1.73877531      0.65234695      1.43873129
H      -0.70634605     -0.75586593      1.46797558
H      -2.94090033     -1.37499231      0.60357342
H      -2.82694498     -0.14599237     -0.66035450
H      -1.75919641     -1.54453317     -0.70476407
H       1.55342377      0.49521915     -1.23167756
H       2.33275249      1.06031821      1.05760630
H       1.67853235     -0.45507401      1.67740387
H       3.01352904     -0.48490730      0.51523331
H       0.80052122     -1.92695932     -0.05109037
