18
b3lypvtz=-205184.23133696
C      -3.16753069     -0.13806001     -0.07636585
O      -1.89451894      0.21241532      0.41970150
C      -0.83631980     -0.39649019     -0.29754791
C       0.46687913     -0.00456981      0.34049000
C       1.20912508      1.21660128     -0.06550084
N       1.65420921     -0.10455667     -0.49542961
C       2.85865822     -0.62349230      0.13475577
H      -3.29384029      0.17265576     -1.12147913
H      -3.90825040      0.37376967      0.53572942
H      -3.34133572     -1.22025501     -0.01499665
H      -0.94976665     -1.49074002     -0.28279491
H      -0.83971234     -0.07966091     -1.34849342
H       0.56811612     -0.30038262      1.38180426
H       0.81258165      1.86018978     -0.84167861
H       1.78894576      1.72328661      0.69989355
H       2.84870441     -1.71357805      0.09133649
H       3.73249535     -0.26927306     -0.41409943
H       2.96462090     -0.31934378      1.18659239
