14
b3lypvtz=-201288.79034923
C      -2.80800928     -0.65413654     -0.12499542
C      -1.73560764      0.07804124      0.18538150
N      -0.43963181     -0.41188650      0.13589055
C       0.55702100      0.38738070      0.03688645
N       0.52201595      1.74546441     -0.12785583
N       1.89882469     -0.06758337      0.14579318
C       2.13374906     -1.28937845     -0.08766266
H      -2.70444255     -1.67593381     -0.46428590
H      -3.80206085     -0.23869764     -0.04701175
H      -1.88235563      1.10008098      0.54128107
H      -0.29739432      2.17686021     -0.51498336
H       1.40388150      2.20282275     -0.28022121
H       3.15329144     -1.64992074      0.01792495
H       1.35254544     -1.99290722     -0.37892357
