14
b3lypvtz=-203663.9828971
C      -2.72074757     -0.97884451      0.84035686
C      -1.94084429     -0.29152389      0.24128844
C      -0.97508785      0.55306694     -0.46443748
C       0.45435814      0.29384377     -0.05758558
C       1.37709119     -0.03675198     -0.96235457
O       2.68434537     -0.26392201     -0.56492578
N       0.75293271      0.51422218      1.29289353
H      -3.41727287     -1.59025111      1.35732996
H      -1.08016891      0.40189715     -1.53982722
H      -1.22350286      1.60127160     -0.26339070
H       1.14974871     -0.13300652     -2.01397982
H       3.23512113     -0.39836429     -1.33839582
H       1.66366551      0.16438637      1.55411180
H       0.04036161      0.16397628      1.91891637
