14
b3lypvtz=-255298.99658604
F       1.74096045     -0.46677363     -0.93651902
C       1.71203339      0.21967567      0.27026021
C       0.28317822      0.40383847      0.74813966
O      -0.44018942      1.18004215     -0.19151172
C      -1.63767052      0.47616210     -0.52254741
C      -1.28237866     -0.96859441     -0.20590222
O      -0.39712882     -0.82592850      0.90850937
H       2.27442101     -0.35863263      1.00590614
H       2.18099716      1.19497159      0.12394433
H       0.30359980      0.90281305      1.72675175
H      -1.86092323      0.65258552     -1.57357559
H      -2.47062760      0.83129648      0.09324573
H      -0.77244668     -1.45188975     -1.04270995
H      -2.13098909     -1.57178012      0.11157571
