15
b3lypvtz=-191196.26389583
C      -3.13207379      0.25975705     -0.00006074
C      -2.02133693     -0.47604725     -0.00020217
N      -0.76885059      0.15091932     -0.00017554
N       0.18604596     -0.66481785     -0.00024619
C       1.46715701     -0.06825983     -0.00011424
C       2.49009613     -0.93100694     -0.00011312
C       1.61450470      1.42364732     -0.00008314
H      -4.10902117     -0.20127085     -0.00012711
H      -3.07336011      1.33962173      0.00014720
H      -2.02627068     -1.56267851     -0.00033777
H       2.29601625     -1.99422446     -0.00013762
H       3.51669471     -0.59362695     -0.00006839
H       1.12864732      1.86098550     -0.87342067
H       1.12865717      1.86092831      0.87328748
H       2.66670302      1.70223141     -0.00008098
