15
b3lypvtz=-191203.57295675
C      -1.48573409      0.07181605      0.15340070
N      -1.07968998     -1.34959545     -0.02690899
C       0.24709443     -0.92703574     -0.54971109
C       1.35325981     -0.76621944      0.46890249
N       1.64355162      0.41726535      0.82427384
C       0.79681140      1.37033453      0.07837685
C      -0.25361493      0.53657849     -0.66556494
H      -2.46527127      0.29167747     -0.27357338
H      -1.46545177      0.42885804      1.18756124
H      -1.05083488     -1.90152172      0.82308260
H       0.56392316     -1.48175914     -1.43617572
H       1.88337882     -1.61461652      0.89759762
H       0.36020302      2.08483296      0.77983950
H       1.43854922      1.94237060     -0.59714898
H      -0.48627456      0.89701450     -1.66375173
