17
b3lypvtz=-191964.28535386
C       2.63097537     -0.16500977      0.32483389
C       1.51873701     -0.66697227     -0.21035392
C       0.20476403     -0.00347518     -0.27504043
C      -0.99533338     -0.85741058     -0.62151772
C      -1.76636810     -1.33263419      0.62112044
N       0.14751960      1.25039785     -0.00080075
N      -1.06502624      1.88211188      0.05066980
H       2.64167453      0.81805413      0.77553669
H       3.55498665     -0.72649407      0.31652803
H       1.55007131     -1.66443985     -0.63703895
H      -1.67380684     -0.31005895     -1.28505415
H      -0.65943713     -1.72297230     -1.19454413
H      -1.13014803     -1.95022071      1.25618880
H      -2.63627312     -1.92627144      0.33577772
H      -2.10988483     -0.48771021      1.21756915
H      -0.94040278      2.87230150     -0.09333830
H      -1.79767403      1.50383117     -0.54304116
