14
b3lypvtz=-231973.76983124
O      -1.96203752      0.16570708      1.03752874
C      -1.81754562     -0.83358747      0.03781501
C      -1.13274370     -0.19985462     -1.17191721
C       0.25276814      0.18465644     -0.93432456
C       1.40120859      0.47977719     -0.74240185
C       2.77730667      0.86845883     -0.49141699
F       3.67789734     -0.09544942     -0.95487418
H      -2.27317253     -0.24666916      1.84784796
H      -2.79520252     -1.21812954     -0.27662275
H      -1.21798001     -1.67523858      0.39942574
H      -1.17036217     -0.90707041     -2.00568727
H      -1.71081415      0.67686357     -1.47671176
H       3.01499062      1.80685498     -0.99781399
H       2.95548686      0.99368113      0.57915312
