18
b3lypvtz=-205218.14274586
N      -3.38375845     -0.37051314     -0.23599276
C      -2.01896096     -0.41265073      0.29549918
C      -1.19747198      0.74889585     -0.25935520
C       0.24275492      0.81647315      0.25934319
C       1.13691047     -0.33736607     -0.22652138
C       2.52819964     -0.23830952      0.33892654
O       3.53723751     -0.15641054     -0.31297254
H      -3.91268088     -1.17752681      0.07202443
H      -3.87308384      0.44639711      0.11222344
H      -1.97150336     -0.38963603      1.39534506
H      -1.57967984     -1.36287786     -0.01627233
H      -1.70159440      1.68494555      0.00220398
H      -1.20342022      0.69306638     -1.35066868
H       0.23665183      0.83661484      1.35410777
H       0.68941387      1.76047826     -0.06181431
H       0.72014139     -1.29397207      0.10746209
H       1.20131429     -0.35569650     -1.31515260
H       2.57839601     -0.23493788      1.45052712
