12
b3lypvtz=-223820.1064437
C      -2.62416127      0.94822464      0.06338629
N      -2.35676615     -0.22078278     -0.34820086
C      -1.10370540     -0.76983779     -0.08976658
N      -0.03262344     -0.08193563     -0.16793552
N       1.14250647     -0.73540893      0.02639559
C       2.35876765     -0.10278127     -0.08391782
O       2.54252103      1.05524047     -0.35234301
H      -3.57789503      1.39234020     -0.20682807
H      -1.93560934      1.53404020      0.67583202
H      -1.11044659     -1.84437576      0.10686834
H       1.13942213     -1.72296493      0.25953889
H       3.17245194     -0.82362142      0.11737073
