15
b3lypvtz=-191208.93454203
C      -1.58179685      1.53952020     -0.04094730
C      -0.88851368      0.40714601     -0.00552629
C      -1.22621205     -1.07539839      0.03875182
C       0.30904734     -1.33561081      0.04788984
N       0.48748632      0.11956536      0.00468703
C       1.61850660      0.88984070     -0.01484406
N       2.83124346      0.50077351     -0.00082961
H      -2.66098601      1.50662609     -0.04113393
H      -1.10761981      2.50978397     -0.07022750
H      -1.74878470     -1.39857324      0.93667357
H      -1.74746001     -1.45168924     -0.83903053
H       0.70442329     -1.85256147     -0.82828880
H       0.70315446     -1.79922323      0.95399934
H       1.40496956      1.95696174     -0.04442920
H       2.90254209     -0.51716120      0.02751053
