12
b3lypvtz=-223829.95925233
C       2.20957428      0.23664025      0.33043116
N       0.91171708      0.67062431      0.44607584
C       0.25431975     -0.28692521     -0.13197406
O       1.04181441     -1.26826686     -0.59064845
N       2.36676420     -0.90253336     -0.27133707
C      -1.23022836     -0.40870899     -0.33487233
N      -2.02617084      0.68554918      0.18609815
H       3.05622775      0.78832794      0.70636479
H      -1.41780347     -0.51845165     -1.40603848
H      -1.55862905     -1.34696135      0.11933173
H      -1.86989992      0.79002559      1.18170184
H      -1.73768582      1.56068015     -0.23513313
