16
b3lypvtz=-209462.77243705
C      -1.69506550     -0.52371396      0.22826880
C      -0.25786713     -1.09325779      0.15922429
C       0.60141062      0.01311053     -0.50735833
C      -0.25091204      1.25030404     -0.33577194
C      -1.48473998      0.95961684      0.05794692
C       2.01164879      0.12544223      0.04671658
F       1.99303928      0.38062917      1.41981527
H      -2.32723688     -0.91512892     -0.57649978
H      -2.19864072     -0.77458522      1.16420816
H      -0.20378129     -2.04012935     -0.37692995
H       0.11312803     -1.26193144      1.17020709
H       0.72935701     -0.19225734     -1.58000207
H       0.11857217      2.24492333     -0.54972682
H      -2.27363663      1.68446183      0.21029571
H       2.56799003     -0.80306761     -0.10330161
H       2.55673423      0.94558367     -0.42709234
