21
b3lypvtz=-195911.40940866
C       3.80546470     -0.33058160     -0.00000048
C       2.52454160      0.50309386     -0.00000218
C       1.25138417     -0.34465017      0.00000174
C      -0.03590768      0.48160674      0.00000002
C      -1.30406145     -0.37266631      0.00000401
C      -2.57697576      0.45476188      0.00000251
O      -3.69020351     -0.43755726      0.00000450
H       3.85722701     -0.97443528     -0.88090301
H       4.69430844      0.30255758     -0.00000330
H       3.85722845     -0.97442948      0.88090620
H       2.51855957      1.16166054     -0.87430210
H       2.51856104      1.16166640      0.87429333
H       1.25722418     -1.00395683      0.87467543
H       1.25722271     -1.00396273     -0.87466751
H      -0.03926653      1.14048585      0.87518742
H      -0.03926805      1.14047983     -0.87519190
H      -1.31610400     -1.02641610     -0.87647410
H      -1.31610233     -1.02641050      0.87648631
H      -2.60000060      1.10338718      0.88526683
H      -2.60000093      1.10338356     -0.88526448
H      -4.50042204      0.07939985      0.00000877
