15
b3lypvtz=-242833.88586555
C       2.61191679     -0.17839605      0.56833337
C       1.63766757     -0.53949680     -0.54036290
O       0.28342317     -0.60919626     -0.06777341
C      -0.46860863      0.51396028     -0.03235998
N      -0.16263188      1.70904034     -0.31497621
C      -1.85837251      0.20408517      0.46902548
F      -2.39879255     -0.89198443     -0.18889581
H       2.53873199     -0.89552830      1.38592893
H       2.41964590      0.81715320      0.96838268
H       3.63361287     -0.19950124      0.18480721
H       1.84231064     -1.53734394     -0.92447122
H       1.69989643      0.15846776     -1.37887999
H       0.81217618      1.82878400     -0.57758253
H      -2.49259939      1.07086771      0.29954542
H      -1.82070659     -0.03185944      1.53575898
