14
b3lypvtz=-203662.04554317
C       0.38086417      1.27268890      0.01411803
C      -0.94927409      0.55496727     -0.17159761
C      -0.74059453     -0.91104200     -0.22159296
N      -1.32123175     -0.28794025      0.98579964
C       0.72828656     -1.15902241     -0.06407563
C       1.39310264      0.13871046      0.07904613
O       1.50227866     -0.61063972     -1.14323019
H       0.59896624      1.93853233     -0.82326718
H       0.39218147      1.86040472      0.93408218
H      -1.73811808      1.02011377     -0.74709146
H      -1.34770101     -1.56042905     -0.83899866
H      -2.32530799     -0.43687613      0.99271532
H       1.10762373     -2.07434840      0.37500359
H       2.31892398      0.25488052      0.62908880
