12
b3lypvtz=-249537.17969093
C       2.13163281      0.84295678     -0.16026660
N       0.88007555      0.79698540      0.10120923
C       0.09237871     -0.23981266     -0.30670852
O       0.64264180     -1.28204937     -1.02443166
C      -1.21484722     -0.17763628      0.02827869
O      -2.08389776     -1.14838024     -0.32377773
O      -1.76327570      0.83391871      0.72847210
H       2.64903787      0.06712875     -0.71998069
H       2.70129865      1.69490774      0.19286012
H      -0.04950988     -1.92060486     -1.22735120
H      -2.95791601     -0.91421891      0.00955865
H      -1.02771882      1.44690493      0.90803763
