17
b3lypvtz=-191963.89919708
C      -1.86639784     -0.88593583      0.24090914
C      -0.78583443      0.16139873      0.06006758
C      -1.05815061      1.33359457     -0.80560911
N      -1.14167385      1.47485477      0.66124318
C       0.60826025     -0.33442569      0.22225708
C       1.54570983     -0.32816245     -0.73041715
N       2.81701283     -0.88301664     -0.64035895
H      -2.85407134     -0.42643267      0.20867305
H      -1.80192528     -1.64897355     -0.53717013
H      -1.75826821     -1.38211015      1.20841164
H      -0.23141718      1.80827534     -1.31932893
H      -2.00720991      1.40574088     -1.32352724
H      -0.29283255      1.92263379      0.99409789
H       0.83873106     -0.78155478      1.18744617
H       1.32128331      0.07950318     -1.70945988
H       3.14176013     -1.07845424      0.29428722
H       3.52502380     -0.43693528     -1.20079059
