18
b3lypvtz=-181901.64737751
C      -3.09126905      0.80412703     -0.16429703
N      -2.40941468     -0.15410548      0.28806800
C      -1.16958018     -0.49760640     -0.38750451
C       0.01555620     -0.42284346      0.58785815
C       1.28183280     -0.94778972     -0.02170635
C       2.41792998     -0.28992032     -0.24732025
C       2.72955549      1.14453400      0.05596473
H      -2.80081509      1.38894152     -1.04707952
H      -4.02096593      1.08041507      0.32894713
H      -1.26690147     -1.52688498     -0.74498176
H      -0.97970548      0.14220247     -1.26133105
H      -0.24482784     -1.01655816      1.46924683
H       0.13023442      0.60654967      0.92811577
H       1.24631951     -1.99415784     -0.31394993
H       3.23215684     -0.84777000     -0.70094466
H       3.03801653      1.67201939     -0.85096658
H       3.56614735      1.21876359      0.75667562
H       1.88622858      1.68221460      0.48562140
