14
b3lypvtz=-203649.02532399792
C      -1.25152902     -1.19792524      0.15051914
C      -1.68509942     -0.44291391     -0.78809266
C      -0.48337711      0.09723808     -0.03673932
C       0.89974245      0.11192528     -0.66326739
N       1.91723646     -0.12435052      0.36546539
C      -0.72964342      1.19253820      0.95990871
O      -1.73680883      1.30234943      1.61704834
H      -1.33377268     -2.07408778      0.76661485
H      -2.40190753     -0.20482238     -1.55211880
H       1.09319608      1.09998973     -1.09273274
H       0.91863005     -0.60450071     -1.49430157
H       2.85086208     -0.01271203     -0.01060447
H       1.84983182     -1.07082622      0.72157193
H       0.09263906      1.92809807      1.05672860
