20
b3lypvtz=-182680.01337942
C      -1.87534014     -0.90248778      0.00446126
C      -0.91541213      0.26935101     -0.01533829
N      -1.29593698      1.48131966     -0.03761031
C       0.58901819     -0.03918208     -0.00526627
C       0.92325800     -1.10107394     -1.07195574
C       0.97149806     -0.57851497      1.39073212
C       1.40545345      1.22879469     -0.28657036
H      -2.88750600     -0.56175914      0.22044035
H      -1.88621277     -1.40518317     -0.96494953
H      -1.59718100     -1.65160264      0.74659192
H      -2.31431123      1.54491050     -0.02017684
H       0.43173948     -2.05462212     -0.87629109
H       0.63037541     -0.76482787     -2.06863326
H       1.99904045     -1.28374098     -1.08636473
H       2.04276103     -0.78551884      1.42619084
H       0.74436439      0.15461129      2.16603753
H       0.45038271     -1.50531834      1.63434003
H       1.16677712      1.64175889     -1.26651793
H       1.19894026      2.00366330      0.44879078
H       2.47132270      0.99309751     -0.25973547
