19
b3lypvtz=-195129.01667845
C       1.97571400     -1.11193866      0.18126199
O       0.76165004     -0.78571457     -0.47315443
C       0.15853247      0.41211656     -0.04609828
C       0.86504262      1.66700996     -0.50385603
C      -0.55512593      0.38427937      1.28395739
C      -1.34229688      0.37926862     -0.01298964
C      -2.12643741     -0.84015618     -0.43274449
H       1.84871016     -1.15093590      1.26846586
H       2.27045246     -2.09635566     -0.17822519
H       2.77498166     -0.40113785     -0.05196103
H       0.29935397      2.55338895     -0.21606149
H       1.86057679      1.75658531     -0.06405431
H       0.97060773      1.66499196     -1.59066242
H      -0.52844812     -0.54819853      1.83267747
H      -0.55363329      1.27246924      1.90196574
H      -1.81415823      1.32142536     -0.26952510
H      -1.58183327     -1.75491004     -0.20534859
H      -3.08956432     -0.87572665      0.08122718
H      -2.32095744     -0.83067328     -1.50735462
