15
b3lypvtz=-240266.48074013
C      -1.48405976      1.25121059     -0.61307048
C      -1.09762138      0.07052090      0.26190725
C      -2.14294532     -1.02795540      0.29862898
O       0.11443595     -0.55141508     -0.26981871
C       1.27409529     -0.01107087      0.08994388
O       1.44506939      0.93017128      0.82412819
O       2.26603007     -0.70127246     -0.50636741
H      -0.69928690      2.00612713     -0.61245961
H      -1.66422369      0.92515792     -1.63864500
H      -2.39738701      1.71175508     -0.23333505
H      -0.86548265      0.41562776      1.26884520
H      -3.07404104     -0.63879574      0.71213314
H      -2.34332686     -1.40515323     -0.70508501
H      -1.81123983     -1.85937778      0.91987844
H       3.08965973     -0.28614612     -0.21974181
