9
b3lypvtz=-230679.52128784
C       0.95320947      0.07283478     -0.12232465
N       2.20978535      0.08536573     -0.25496331
N       0.24839782     -1.08634303      0.32685114
N      -0.99905128     -1.03757756      0.44022222
N      -1.60700757      0.12194779      0.12631632
N      -1.01452229      1.26174359     -0.30639389
N       0.23004682      1.26164226     -0.43526196
H       2.58770580     -0.82609077      0.00299192
H      -2.60856411      0.14647722      0.22256219
