14
b3lypvtz=-203676.67923981
C       0.38789334     -1.17611330      0.23381862
C      -0.95620464     -0.57199107      0.61044240
C      -0.89028528      0.88958840      0.35255651
N      -1.70719707      0.00191075     -0.52551215
C       0.46822650      1.16743425     -0.18501875
C       1.15292744      0.02141511     -0.27420381
O       2.39094324     -0.21180022     -0.77856352
H       0.89091005     -1.62865110      1.09330990
H       0.30042115     -1.94228817     -0.53955797
H      -1.50949760     -0.98087865      1.44471292
H      -1.40374710      1.60922175      0.97654267
H      -2.68611414      0.07441462     -0.25909464
H       0.80719999      2.13864685     -0.51695088
H       2.75452411      0.60909076     -1.12885283
