14
b3lypvtz=-224574.34797567
C      -1.15452527     -1.72779610      0.91820131
N       0.00173944     -1.08931297      1.52599952
C       0.65461257     -0.22070728      0.90804260
O       0.36195909      0.22596246     -0.36191452
C       1.22583137      1.13053959     -0.94414668
N       1.01037545      1.63928234     -2.07759902
N      -0.09374570      1.22756737     -2.78931693
H      -1.15587024     -2.78048247      1.20005009
H      -1.19097069     -1.64719742     -0.17023382
H      -2.06390998     -1.28410647      1.33095772
H       1.52373375      0.25609290      1.35599517
H       2.11270996      1.39121129     -0.38196273
H      -0.35341433      1.94681852     -3.44587404
H      -0.87822543      0.93212824     -2.21819867
