15
b3lypvtz=-216920.77704598
O      -2.40647743      1.12260333      1.51218690
C      -2.58265264      0.04990125      0.99804337
C      -1.50812503     -0.81308314      0.37534333
C      -0.13275100     -0.22520343      0.38186369
C       0.63328772     -0.11643090     -0.69529176
C       2.01685941      0.45164017     -0.71783532
O       2.43910493      0.78831657      0.59450339
H      -3.59922037     -0.39843586      0.96046965
H      -1.83835672     -1.07141119     -0.63711892
H      -1.53740213     -1.76174561      0.93226997
H       0.24234826      0.13015137      1.33285673
H       0.26876017     -0.45357471     -1.66234915
H       2.02775945      1.33419649     -1.37334301
H       2.69618759     -0.28466621     -1.17170114
H       3.28067778      1.24774187      0.53820226
