16
b3lypvtz=-204462.46271745
N       3.02886163      1.60071062     -0.49244088
C       2.50580700      0.63786780     -0.14181310
C       1.83139550     -0.57672844      0.31017001
C       0.32580920     -0.37963806      0.56691423
C      -0.46969273     -0.00923287     -0.68410563
C      -1.97107352      0.11762139     -0.43684105
O      -2.31410397      1.19631310      0.42859746
H       2.32835615     -0.91715648      1.22113191
H       1.98732419     -1.35220012     -0.44409988
H      -0.05746443     -1.31384021      0.98737453
H       0.20113112      0.39145031      1.33022350
H      -0.31598743     -0.77235251     -1.45488563
H      -0.10143742      0.93509657     -1.09134472
H      -2.47612098      0.32739080     -1.38008482
H      -2.37409515     -0.82928587     -0.05550253
H      -2.12850918      0.94398398      1.33690663
