13
b3lypvtz=-190471.01542882
C       2.22164422     -0.84211095      0.06630403
C       0.76455099     -1.05731107     -0.32758339
C      -0.20401296     -0.08115110      0.39783763
C       0.08474344      1.32092396      0.06849213
N       0.35086311      2.40810132     -0.19217538
C      -1.60450498     -0.40421553      0.09947747
N      -2.68969801     -0.70070520     -0.13527596
H       2.85829925     -1.55388962     -0.45845213
H       2.56261670      0.16168411     -0.18840229
H       2.37077593     -0.99016371      1.13756644
H       0.63072306     -0.93662521     -1.40272401
H       0.44320884     -2.06831308     -0.07540425
H      -0.06793958     -0.19309293      1.47853972
