17
b3lypvtz=-191949.64078877
C       1.91746431      0.04943064      0.41002765
C       0.72648384      0.32805091     -0.48699328
C      -0.69854982      0.36865268      0.09542143
C      -1.11841097     -0.99751655      0.56933351
C      -1.06721357     -0.71311785     -0.90579274
N       0.29711171     -0.74670196     -1.44368733
N      -1.44980988      1.51692691      0.47348471
H       1.76688165     -0.84199007      1.02150238
H       2.09490534      0.89386287      1.08006019
H       2.82433939     -0.09618393     -0.18152356
H       0.91406315      1.24306262     -1.05983477
H      -2.11039804     -1.01172449      1.00114995
H      -0.41326117     -1.68804627      1.01854968
H      -1.92932151     -0.79053767     -1.55388361
H       0.76584715     -1.63312428     -1.28028662
H      -1.30281339      2.28882189     -0.16592331
H      -1.21731820      1.83013453      1.40839570
