18
b3lypvtz=-205199.71893593
C       2.31004633     -0.25087078     -0.71598036
C       1.60492918     -0.39923918      0.63219781
C       0.16120198      0.08749276      0.66930756
N      -0.08699761      1.47066795      0.17680740
C      -1.39084840      1.05024210     -0.39572079
C      -0.90116083     -0.40373741     -0.35183179
O      -1.87355390     -1.33120849      0.08419948
H       3.36215876     -0.52767811     -0.63424186
H       2.25154043      0.77867830     -1.06757206
H       1.86533540     -0.89050322     -1.48089402
H       1.62035391     -1.44627788      0.95433172
H       2.16591339      0.15235189      1.39390823
H      -0.25155322     -0.07997656      1.67260952
H      -0.14132233      2.18067279      0.89637090
H      -2.24494106      1.17448240      0.27795389
H      -1.62785146      1.48477318     -1.36775706
H      -0.45658439     -0.71505178     -1.29938941
H      -1.55833418     -2.22299496     -0.08833913
