15
b3lypvtz=-191207.8466665
C       1.06352846     -1.22328445      0.53542498
N       1.85449020     -0.61604050     -0.55338366
C       1.39475513      0.55395820     -0.74672414
N       0.37131518      1.02432163      0.08793116
C      -0.99471097      1.14664477     -0.52425551
C      -1.38634948     -0.23224627      0.06647923
C      -0.04870831     -0.20350949      0.84700126
H       0.68350906     -2.19773774      0.21747434
H       1.70846901     -1.39369485      1.40032431
H       1.77869871      1.21402210     -1.51785986
H      -0.99080412      1.23375131     -1.61103015
H      -1.54195997      1.98761252     -0.10027180
H      -2.29487163     -0.25689992      0.66548248
H      -1.43018524     -1.02607930     -0.67888656
H      -0.16737602     -0.01061801      1.91219393
