17
b3lypvtz=-194357.21689175
C       1.22796742     -1.80375700      1.51890514
C       0.62591876     -1.04204172      0.81377112
C      -0.11959436     -0.13638408     -0.06952981
C      -0.36099282     -0.83535641     -1.42383171
C      -1.46748569      0.23604151      0.58088451
C       0.70910547      1.13713459     -0.32841124
O       0.88248447      1.85153261      0.88672929
H       1.76021771     -2.46985128      2.15050941
H      -0.93631100     -1.74936231     -1.28117957
H      -0.91972482     -0.17927763     -2.09394824
H       0.58138280     -1.10191844     -1.90348727
H      -1.30978075      0.74632037      1.52814270
H      -2.06272378     -0.65921552      0.75994136
H      -2.02951570      0.89861288     -0.08078294
H       0.17127569      1.74875050     -1.06430000
H       1.67399613      0.85160972     -0.75932373
H       1.57388046      2.50716220      0.76591097
