20
b3lypvtz=-182667.54928425
C      -1.54973428      1.83476847      0.23402488
C      -0.39932191      1.35219290     -0.26097414
N       0.09868620      0.07457935     -0.18399067
C      -0.60786475     -0.95172815      0.56492269
C      -1.69802579     -1.65669827     -0.24580504
C       1.45210070     -0.20252854     -0.63806797
C       2.52671911     -0.04992863      0.44220252
H      -1.79768041      2.87219022      0.07260194
H      -2.26035058      1.23615609      0.78436303
H       0.24935876      2.02357104     -0.81388096
H       0.12319537     -1.68539185      0.90924189
H      -1.04125819     -0.50452362      1.46459563
H      -2.21261216     -2.39823603      0.36899245
H      -2.43623759     -0.94314085     -0.61010901
H      -1.26983430     -2.16953053     -1.10850680
H       1.67279715      0.46752736     -1.47128626
H       1.48130967     -1.21650998     -1.04627589
H       3.51357795     -0.28580401      0.03803555
H       2.34134311     -0.72008587      1.28328864
H       2.54876494      0.97133890      0.82488053
