13
b3lypvtz=-190459.40706203
C      -1.57916185     -1.46583404     -0.34460050
C      -0.81123087     -0.45249921      0.05690523
C      -1.26891484      0.93572399     -0.15179525
N      -0.68257587      2.02214225      0.14138037
C       0.51045529     -0.69789735      0.76011813
C       1.67848956     -0.29254727     -0.02334824
N       2.60188060      0.01664750     -0.63527622
H      -1.28953085     -2.49953139     -0.21047734
H      -2.53022117     -1.28226911     -0.82779101
H      -2.25345032      1.01288940     -0.61772084
H       0.23833790      1.87363265      0.55688191
H       0.61045436     -1.75813639      0.99399086
H       0.53857006     -0.15899703      1.71183190
