17
b3lypvtz=-215280.30785618
C      -2.98970732     -0.26107279     -0.23389173
N      -1.67930009     -0.26574138      0.40460792
C      -0.69917717      0.57549142     -0.26613555
C       0.70208126      0.41496922      0.35446411
N       1.62194960      1.41288948     -0.16011524
C       1.23676785     -0.98025319      0.09866854
O       2.37426528     -1.20750469     -0.23346106
H      -3.68513742     -0.86047773      0.35369235
H      -3.42109584      0.74359683     -0.36083960
H      -2.91414216     -0.71556781     -1.22340548
H      -1.77190368      0.02411590      1.37124116
H      -0.65373639      0.28696405     -1.31987552
H      -0.95528068      1.64587759     -0.25416357
H       0.57576011      0.46196220      1.45152659
H       2.55067524      1.01198626     -0.23055137
H       1.66596477      2.22914287      0.43327924
H       0.50120465     -1.78994424      0.24223020
