15
b3lypvtz=-237803.20453681
C      -3.03886852     -0.66775109      0.36457317
N      -2.21322954      0.34767113     -0.29034732
N      -0.82551711     -0.07088549     -0.24282693
C      -0.07650837      0.88105937      0.13513678
O       1.24982718      0.76845414      0.25187859
C       1.82887294     -0.50753876     -0.10415514
O       3.20009282     -0.41748379      0.05344255
H      -4.08679710     -0.42773538      0.17962225
H      -2.86753375     -0.63410878      1.44061100
H      -2.83193787     -1.68594931      0.01415341
H      -2.44774302      0.33975546     -1.27829618
H      -0.43859930      1.87272134      0.39821193
H       1.51804667     -0.74478390     -1.12444305
H       1.46304527     -1.27020860      0.58056049
H       3.55739070      0.17424965     -0.61728954
