16
b3lypvtz=-227787.04929964
C      -1.02755812     -0.10987888     -1.16204653
C      -0.03015052     -0.02523969     -0.00315911
C       0.20121890      1.43333485      0.41556280
C       1.34329430     -0.58227679     -0.46683540
O       1.84466802     -0.29194245     -1.52012025
O       1.93886946     -1.38241197      0.42648029
N      -0.46353927     -0.79873787      1.18220565
H      -0.63256965      0.39171519     -2.04305007
H      -1.97293721      0.35641631     -0.87933761
H      -1.22279984     -1.14988538     -1.43291266
H       0.62718025      1.99796732     -0.41128185
H      -0.74560702      1.89667511      0.70178241
H       0.88787401      1.49276635      1.26154956
H       1.29402065     -1.45651419      1.16555841
H      -0.95815771     -0.21612010      1.84528583
H      -1.08380624     -1.55586781      0.92031853
