13
b3lypvtz=-239654.65733392
C      -1.62938281      1.29670814     -0.69831156
C      -0.90259952      0.17896790     -0.53672093
N      -1.39725078     -1.11420347     -0.56182343
N       0.49188487      0.24614458     -0.41852405
N       1.16695568     -0.77628707      0.14555875
C       2.37752173     -0.63939687      0.45764329
F       3.05073315      0.52740003      0.28390358
H      -2.69155290      1.24416928     -0.87761768
H      -1.16080238      2.26879138     -0.69953875
H      -2.37209147     -1.18547166     -0.32380475
H      -0.81636228     -1.78518777     -0.08274269
H       0.90602892      1.16633533     -0.39546206
H       2.97701779     -1.42796980      0.88104030
