16
b3lypvtz=-181148.57138164
C      -3.17312165     -0.37419385      0.00000505
C      -1.99166112      0.25183268      0.00000308
C      -0.72436406     -0.44546558     -0.00000368
C       0.51738445      0.08544561     -0.00000505
C       0.82662480      1.55443831     -0.00000277
C       1.65016492     -0.85305504     -0.00000483
N       2.89669018     -0.59316269      0.00001513
H      -3.23996273     -1.45555573      0.00000219
H      -4.10503120      0.17388243      0.00001108
H      -1.97900465      1.33522516      0.00000707
H      -0.79550361     -1.52991419     -0.00000863
H       1.41788601      1.82646009     -0.87844323
H      -0.06850870      2.16987290      0.00000460
H       1.41789669      1.82645517      0.87843201
H       1.36838785     -1.90853288      0.00000725
H       3.06720080      0.41386164      0.00001372
