17
b3lypvtz=-215294.9692448
C       2.16714450     -0.81129538     -0.45327523
N       1.42088377      0.17290195      0.32447352
C       0.15127629      0.57746217     -0.26164568
C      -0.27125483      1.95090424      0.27060419
C      -0.92525603     -0.45024196      0.06164543
N      -0.92346183     -1.31862838      0.97684418
O      -1.98771538     -0.32439934     -0.77252107
H       2.36622386     -0.49523468     -1.48785458
H       1.61227551     -1.74931794     -0.49183726
H       3.12037847     -1.01140887      0.03566649
H       1.99209833      0.98918210      0.49476876
H       0.20701080      0.63587204     -1.35935139
H      -1.25018201      2.22797613     -0.11604030
H      -0.31808394      1.93437559      1.36034206
H       0.44565091      2.71489211     -0.03641247
H      -0.05001479     -1.25227764      1.49690738
H      -2.64004463     -0.97776712     -0.48164503
