11
b3lypvtz=-213029.94174561
C      -0.05807290      0.94246293     -0.29553924
C       0.51899644     -0.16678590      0.28018783
N      -0.34088771     -1.24436990      0.20403766
C      -1.40737271     -0.80028452     -0.40085254
N      -1.28311752      0.52660580     -0.72498330
C       1.83724069     -0.27700620      0.90148780
O       2.62922157      0.63555321      0.99419226
H       0.30244187      1.94702327     -0.42161271
H      -2.29244071     -1.36889834     -0.63467592
H      -1.96993273      1.09257603     -1.19450557
H       2.06392372     -1.28687638      1.29226373
