15
b3lypvtz=-193612.97085779
C      -1.28846302      0.66505023     -0.46794398
C      -1.28846287     -0.66505176     -0.46794277
C      -0.08079469     -1.06874672      0.36443906
C       1.18563024     -0.77711771     -0.50175412
C       1.18563030      0.77711773     -0.50175432
C      -0.08079531      1.06874710      0.36443761
O      -0.01031278      0.00000084      1.32272153
H      -1.92410630      1.33872432     -1.02256317
H      -1.92410541     -1.33872692     -1.02256153
H      -0.10686025     -2.03266380      0.86304480
H       1.12250811     -1.21366828     -1.49724255
H       2.07235280     -1.17121454     -0.00747342
H       2.07235221      1.17121440     -0.00747231
H       1.12250971      1.21366827     -1.49724285
H      -0.10686173      2.03266483      0.86304204
