17
b3lypvtz=-215306.47534009
C       3.02527964     -0.19130552     -0.15359906
N       1.65559783     -0.65886092     -0.06086860
C       0.59980245      0.17682503      0.15405179
O       0.72290627      1.38784105      0.24093051
C      -0.74932527     -0.51251966      0.30543379
C      -1.89267064      0.32177700     -0.26442527
N      -3.18025950     -0.31081909      0.03910257
H       3.62372087     -0.52974006      0.69552728
H       3.49485727     -0.53991070     -1.07496906
H       3.00178127      0.89519356     -0.15510706
H       1.47814794     -1.64679634     -0.10572428
H      -0.73258475     -1.50369332     -0.15777700
H      -0.93143644     -0.66641552      1.37262382
H      -1.72035959      0.48577789     -1.33694479
H      -1.86786623      1.30247439      0.20800693
H      -3.94179798      0.31052308     -0.20548391
H      -3.30648314     -1.14931986     -0.51697767
