15
b3lypvtz=-193620.00706505
C       3.33935108      0.24694447     -0.00000001
C       2.20496885     -0.45974313     -0.00000019
C       0.88142290      0.12378835     -0.00000004
C      -0.25227064     -0.59682832     -0.00000010
C      -1.59283332     -0.03783526      0.00000005
C      -2.69963390     -0.79571914      0.00000021
O      -1.61939571      1.33038323      0.00000005
H       4.30751860     -0.23422238      0.00000014
H       3.32902474      1.33024628     -0.00000004
H       2.25748945     -1.54485534     -0.00000049
H       0.81536929      1.20578364      0.00000017
H      -0.20376888     -1.67942969     -0.00000029
H      -2.62390656     -1.87167799      0.00000009
H      -3.69111077     -0.36211545      0.00000025
H      -2.53494613      1.62754074      0.00000021
