15
b3lypvtz=-191208.46738005
C       2.08576992     -0.12510659      0.33421783
C       0.60865205      0.16148005      0.35596485
C      -0.11273593      0.66944259     -0.86014431
N      -0.27567124     -0.71288690     -0.38512712
C      -1.54336262     -1.09549598      0.22804686
C      -1.16797256      1.63812685     -0.70586193
N      -2.01990938      2.40756722     -0.60798369
H       2.39042414     -0.49971886     -0.64251165
H       2.65886847      0.77581907      0.55991162
H       2.33712706     -0.88156489      1.08013404
H       0.21962134      0.54664022      1.29620922
H       0.42949947      0.76366695     -1.79372393
H      -1.37061527     -1.98487714      0.83383091
H      -1.98149561     -0.31631966      0.86210000
H      -2.25819985     -1.34677294     -0.55506271
