10
b3lypvtz=-248808.64547763
O      -2.39157953     -1.57023999      0.46039793
C      -1.79193864     -0.53612569      0.33224738
N      -0.41040827     -0.48837061      0.16640544
C       0.32252787      0.66379091      0.01643772
O      -0.11412323      1.79211234      0.00616142
C       1.82557916      0.40760995     -0.14723798
O       2.30274305     -0.69465817     -0.14328271
H      -2.25185688      0.45953661      0.33137504
H       0.09548257     -1.36656519      0.15471825
H       2.41357391      1.33280984     -0.26742249
