19
b3lypvtz=-195141.80143097
C      -3.04707372      0.03996466      0.50866602
C      -1.78517549      0.27242183     -0.33461715
C      -0.80273658     -0.85752756     -0.22127875
C       0.45037341     -0.82530915      0.23034533
C       1.21976380      0.36552836      0.72524144
C       2.56414136      0.54025947      0.02486832
O       3.38762707     -0.57860408      0.35068511
H      -3.76744605      0.84785236      0.36908280
H      -3.53708643     -0.89563510      0.23152978
H      -2.80220410     -0.01751164      1.57036147
H      -2.08261525      0.37764353     -1.38391714
H      -1.32750486      1.22053986     -0.05005017
H      -1.18989068     -1.82270543     -0.53929967
H       1.00750935     -1.75550147      0.24834158
H       0.64992509      1.28814586      0.60889485
H       1.42428767      0.25041930      1.79538493
H       3.03192637      1.47311781      0.36216751
H       2.41181794      0.60900618     -1.05857896
H       4.19456112     -0.53210477     -0.16882729
