15
b3lypvtz=-219501.56153307
C       3.14791544     -0.14631952      0.02118122
C       2.01512273      0.06434349     -0.31110663
C       0.64304821      0.29871100     -0.74009123
C      -0.41565042     -0.33409137      0.18903609
N      -0.36250242      0.29684087      1.50403652
C      -1.79351924     -0.28500152     -0.46396664
F      -2.18527656      1.04664749     -0.64639949
H       4.14858742     -0.32404459      0.32566811
H       0.45413428      1.37360430     -0.80608843
H       0.51362526     -0.09706962     -1.75157347
H      -0.16529953     -1.39136176      0.31626472
H      -0.91877089     -0.21595524      2.17716929
H      -0.73926979      1.23698642      1.45547839
H      -1.80053525     -0.76538098     -1.44558258
H      -2.54150924     -0.75800896      0.17587413
