20
b3lypvtz=-203566.1331862
C      -2.50387521     -0.37222205     -0.18733211
N      -1.08165659     -0.39138910     -0.50207387
C      -0.18921059     -0.15006835      0.64019234
C       0.28367631      1.31718847      0.70105115
N       0.76644903      1.77168069     -0.60526325
C       0.96821570     -1.15925638      0.62901066
N       1.75411441     -1.06151329     -0.60804622
H      -3.07943456     -0.47151776     -1.10860726
H      -2.84582321      0.54103351      0.32452880
H      -2.75833178     -1.22261970      0.44884812
H      -0.87295650      0.31777703     -1.19746725
H      -0.74807420     -0.34288615      1.56117430
H      -0.56803288      1.94461677      0.97751986
H       1.02392829      1.41333372      1.50844052
H       1.59897850      1.25034161     -0.85861754
H       0.98868666      2.75836179     -0.58735043
H       0.53931268     -2.15844997      0.78351114
H       1.63109536     -0.95391436      1.47411050
H       2.51193688     -1.73330947     -0.59802352
H       1.15173670     -1.31069901     -1.38615994
