11
b3lypvtz=-236289.81453078
N       2.40068875     -0.67001391     -0.00986318
N       1.35375300     -0.61841126      0.66072196
C       0.27950279     -0.05802207     -0.09444970
O       0.53082984      0.31341808     -1.34781713
C      -0.91485705      0.05293150      0.52303492
C      -2.10966396      0.60354393     -0.10929692
O      -3.17683208      0.69591750      0.46107004
H       3.13624448     -1.07781835      0.57566276
H       1.47709319      0.10702957     -1.49975374
H      -0.98328311     -0.28783026      1.54547535
H      -1.99317584      0.93925526     -1.15488435
