10
b3lypvtz=-272142.10796797
O      -1.18904548      0.60693565      1.28499127
C      -1.12611411      0.11143108      0.19654772
O      -2.20635788     -0.21249770     -0.56263664
N       0.01086161     -0.23497820     -0.51809305
C       1.35018901     -0.10751558     -0.17861535
O       2.22654575     -0.46436050     -0.92602863
O       1.54584788      0.43652026      1.02818182
H      -2.98468812      0.03692015     -0.04688681
H      -0.13213026     -0.64501241     -1.42742606
H       2.50499160      0.47265725      1.14986572
