12
b3lypvtz=-221416.65088168
C       1.95610004     -0.65039414      0.00006404
N       0.53269989     -0.41212609      0.00001712
N      -0.37627865     -1.42071642     -0.00018773
N      -1.53746988     -0.92849214      0.00032032
N      -1.40958891      0.43215435     -0.00003876
H      -2.23012529      1.00963203      0.00003272
C      -0.08238252      0.82813787      0.00000689
N       0.52817422      1.94874597      0.00001417
H       2.11229694     -1.72531218      0.00012710
H       2.41164915     -0.20513726      0.88448876
H       2.41164742     -0.20526030     -0.88442135
H      -0.11038140      2.73623131     -0.00003529
