18
b3lypvtz=-205246.29967954
C      -3.35033250      0.28879294      0.17570441
C      -2.11465086     -0.53638871     -0.18042670
C      -0.80475863      0.19113846      0.12284944
C       0.43277628     -0.63509251     -0.22184687
C       1.73178300      0.14823961     -0.07263387
N       2.82521785     -0.59885070      0.25860292
O       1.80412500      1.34975337     -0.24964780
H      -3.36389839      1.23275264     -0.37321564
H      -4.27056442     -0.24745596     -0.06173191
H      -3.37114458      0.52806465      1.24122564
H      -2.14260386     -1.48615590      0.36390452
H      -2.14423776     -0.79628111     -1.24357594
H      -0.75866170      1.13096729     -0.42950400
H      -0.77298112      0.46166690      1.18239266
H       0.46949757     -1.54648272      0.38151204
H       0.37980883     -0.95898662     -1.26734371
H       2.78376029     -1.59789993      0.34174500
H       3.72329501     -0.14616071      0.27707180
