19
b3lypvtz=-195134.46152168
C      -1.67022318     -1.24705440      0.31231506
C      -0.71355932     -0.15759703     -0.13095128
C      -1.31311937      1.23316240     -0.05492158
C       0.23688867     -0.47703397     -1.25549599
C       0.75802133     -0.38431888      0.15834092
C       1.71772765      0.70537558      0.56198311
O       3.04446195      0.49172519      0.07543737
H      -1.21523058     -2.23564608      0.23504432
H      -2.57303981     -1.24682170     -0.30429112
H      -1.97881613     -1.10113765      1.35098618
H      -1.57593236      1.49660328      0.97306458
H      -0.64198125      2.00085096     -0.43707991
H      -2.22923909      1.27803043     -0.64940914
H       0.51101758      0.32337458     -1.93096101
H       0.18048346     -1.45132106     -1.72310253
H       0.97343982     -1.33604271      0.63698351
H       1.72653243      0.81128404      1.65421945
H       1.41828242      1.66611831      0.14657190
H       3.34428581     -0.36975129      0.38116617
