15
b3lypvtz=-216909.81366481
C       1.89841317     -1.07026750     -0.32397070
C       1.28269847      0.05604409      0.02345874
O       1.84623015      1.30387118      0.02520707
C      -0.13069159      0.14334722      0.47592235
O      -0.86733580     -1.07223707      0.56146939
C      -1.26594906     -0.11233013     -0.42772448
C      -2.60929113      0.53319937     -0.24632224
H       2.92916063     -1.07787326     -0.65414132
H       1.36767715     -2.00720404     -0.26914770
H       2.76740068      1.23538187     -0.24830082
H      -0.28830555      0.83799141      1.29772032
H      -1.01343069     -0.41580650     -1.44057353
H      -2.69111305      1.42379508     -0.87278457
H      -2.76505274      0.82103448      0.79321975
H      -3.40601365     -0.15532719     -0.53462126
