14
b3lypvtz=-203640.6879884
C      -2.89760560     -0.25528713      0.21753979
C      -1.93603681     -0.00304213     -0.45416019
C      -0.76011840      0.31962456     -1.25509002
C       0.34222143      1.06755627     -0.46929548
C       0.92301744      0.26126880      0.64757579
N       2.16154176     -0.01211290      0.64432294
O       2.52501273     -0.77323853      1.76943247
H      -3.75194977     -0.48384240      0.80421571
H      -0.34397985     -0.59932152     -1.67617731
H      -1.06612421      0.93956740     -2.10178505
H      -0.08618895      1.98867309     -0.06409370
H       1.14399202      1.34454465     -1.15362736
H       0.27656767     -0.08844492      1.45144401
H       3.46975056     -0.90314524      1.63969839
