12
b3lypvtz=-202930.19750882
C      -0.68781158     -0.91899625     -0.32470883
C      -1.65949904     -0.31592573      0.37600892
N      -1.38214156      1.05327343      0.63355856
C      -0.24306676      1.30325656      0.09767355
C       0.38895290      0.09893090     -0.55854617
C       1.67188894     -0.26952859      0.19200037
O       2.76270740     -0.29481853     -0.30839086
H      -0.64724106     -1.94663376     -0.64740787
H      -2.58597757     -0.73733216      0.73449814
H       0.22043967      2.28036377      0.15236146
H       0.64865938      0.26499327     -1.60564642
H       1.51308927     -0.51758291      1.25859915
