16
b3lypvtz=-204440.60085214
N       2.27824684      0.42238906      0.98362334
C       1.32605445     -0.57612897      0.77515923
C       0.22587787     -0.45650543      0.03340799
C      -1.02913451     -1.29014044     -0.15710836
C      -1.74144441      0.00776707     -0.64897703
C      -0.35169952      0.70018016     -0.75694507
O      -0.18691948      2.02331498     -0.26681846
H       2.21850398      1.20410169      0.34773184
H       3.22331731      0.09412933      1.10273649
H       1.50326731     -1.48295282      1.34415405
H      -0.94151938     -2.04192999     -0.94543105
H      -1.45253805     -1.77080974      0.72547972
H      -2.33785923     -0.05502812     -1.55840364
H      -2.34041035      0.46714639      0.13813589
H       0.00325867      0.74016614     -1.79049506
H      -0.39690150      2.01450068      0.67395013
