15
b3lypvtz=-216957.9463774
C      -2.30136319     -0.59898031     -0.24284963
C      -1.05240121     -0.03834335      0.40001347
C      -0.56443553      1.31004489     -0.14780616
C       0.94813680      1.21810733      0.03981397
C       1.22377886     -0.27777891     -0.00623660
O       2.27009426     -0.83607806     -0.16085813
O       0.05346345     -0.95085158      0.16707996
H      -3.14523826      0.06931788     -0.06172790
H      -2.54544564     -1.57753934      0.16951401
H      -2.16492275     -0.70161660     -1.32017311
H      -1.18615685      0.02188677      1.48478615
H      -0.81419184      1.38718116     -1.20790427
H      -1.02531225      2.15059145      0.36848262
H       1.54123932      1.73243287     -0.71235752
H       1.26723983      1.58596281      1.01831214
