15
b3lypvtz=-240224.3740073
C       0.03538995      1.38670747      0.33455053
C       0.94706944      0.17217157      0.06957581
C      -0.05983447     -0.99976995     -0.00082369
C      -1.30703927     -0.28258085     -0.49643099
O      -1.31907898      0.91445796      0.28593648
O      -0.26115456     -1.59070686      1.27695804
O       1.61262917      0.39352819     -1.17222459
H       0.19219704      1.84177316      1.31151312
H       0.21327042      2.13421842     -0.44338637
H       1.66353666      0.00007016      0.87566733
H       0.28967844     -1.78967630     -0.66493211
H      -2.22844154     -0.82832823     -0.30165544
H      -1.22896398     -0.05541617     -1.56591873
H      -0.80606327     -0.98749554      1.79594633
H       2.25680493     -0.30895302     -1.30477573
