12
b3lypvtz=-202908.2788539
C       2.12068233     -1.13095485     -0.08759412
C       1.19741229     -0.37480440     -0.20223976
C       0.09046462      0.57073058     -0.35205452
C      -1.14140771      0.18117281      0.48917553
C      -1.76125344     -1.06460043      0.05728489
N      -2.25558488     -2.04181569     -0.29342750
O       0.43529065      1.88003884      0.09281159
H       2.93147211     -1.80908337      0.01445871
H      -0.20596074      0.59364694     -1.40729832
H      -1.86849434      0.99062314      0.40740576
H      -0.84748977      0.10213291      1.53630178
H       1.30486888      2.10291352     -0.25482404
