10
b3lypvtz=-246379.96695896
N       1.90297396     -1.27876636     -0.00002654
N       1.94933199     -0.04635477     -0.00001808
C       0.60347393      0.58649467     -0.00000881
O       0.53996568      1.78444517      0.00016047
N      -0.45675226     -0.28456851     -0.00004271
C      -1.79086340      0.10762419      0.00011696
O      -2.69590341     -0.68455650      0.00003653
H       2.87168288     -1.62761813      0.00003562
H      -0.24745836     -1.27611005     -0.00008261
H      -1.91260601      1.19770929     -0.00000782
