13
b3lypvtz=-213763.65550996
C       0.70645472      1.56703611      0.00011779
C       0.43347028      0.08893406     -0.00003478
C       1.61751999     -0.84047189     -0.00001902
O       2.76297676     -0.46637779      0.00010090
N      -0.69349484     -0.52108204     -0.00016216
C      -1.89918418      0.19972773     -0.00024151
N      -3.03317839     -0.36469077      0.00024411
H       0.27590462      2.04606168     -0.88053774
H       0.27552432      2.04595418      0.88064207
H       1.78040876      1.73579063      0.00034454
H       1.33428251     -1.90742081     -0.00013337
H      -1.86285261      1.28922684     -0.00076392
H      -2.90297095     -1.37997993      0.00067208
