12
b3lypvtz=-249572.86784271
C       1.43323965      1.26008523      0.00002054
C       1.07365165     -0.20023545      0.00000359
O       2.10121325     -1.06808697     -0.00000255
N      -0.08490537     -0.73737603     -0.00000550
C      -1.24006747      0.05921856     -0.00000233
O      -1.33025287      1.26185813     -0.00000505
O      -2.34306283     -0.71688525      0.00001200
H       0.99840866      1.75177537      0.86822749
H       0.99843498      1.75178791     -0.86819264
H       2.51424513      1.40556208      0.00003788
H       2.93673237     -0.58848422      0.00000631
H      -2.04197115     -1.63546836      0.00001326
