14
b3lypvtz=-227011.63453126
N       2.54852255      0.11939705      0.06459696
C       1.71444300     -0.92330003     -0.03505457
C       0.35035997     -0.83383373     -0.08881680
C      -0.32305468      0.43345964     -0.05319142
O       0.25854384      1.52517471      0.01965031
C      -1.85046614      0.46244281     -0.12548495
O      -2.51084017     -0.78243206      0.04483231
H       3.54215927     -0.00880164      0.08954084
H       2.12873375      1.04323103      0.08361960
H       2.18930873     -1.89754000     -0.07354518
H      -0.23049374     -1.73652343     -0.18385943
H      -2.19556428      1.21565062      0.58982718
H      -2.12183788      0.82020086     -1.12102688
H      -2.42161923     -1.05275182      0.96354504
