15
b3lypvtz=-214539.36211417
N       1.89849134      0.71173377      0.01863600
C       0.96340138     -0.26694151      0.01265780
O       1.23096251     -1.45916501      0.01764599
C      -0.46508477      0.23413745     -0.00179926
N      -0.62702230      1.67311173     -0.01640541
C      -1.45203187     -0.63266367      0.75290970
C      -1.44639971     -0.65371094     -0.74066963
H       1.59931354      1.67172539      0.02657131
H       2.86952062      0.45698570      0.03784916
H      -1.15325028      2.01020166      0.77737727
H      -1.07254159      2.00203377     -0.86174629
H      -1.04632007     -1.49221073      1.26560048
H      -2.25913037     -0.11644458      1.25527872
H      -1.03613956     -1.52656017     -1.22659755
H      -2.24804188     -0.14964584     -1.26347530
