17
b3lypvtz=-194372.94904372
C      -0.07836719      1.78798081      0.03302797
C      -0.45704409      0.53091124      0.28089376
C       0.43848133     -0.53441080      0.75458500
C       1.69844791     -0.79070848      0.38882574
C       2.52757120     -0.08325990     -0.63768508
C      -1.90947636      0.14410995      0.16260587
O      -2.03133275     -0.95959494     -0.73420833
H       0.93467246      2.12567066      0.19876327
H      -0.78820980      2.52582159     -0.31891271
H      -0.01684526     -1.22196635      1.46178921
H       2.18048543     -1.63683060      0.86897902
H       3.08522334     -0.80701776     -1.23624354
H       3.27041018      0.57029290     -0.16905778
H       1.92210694      0.52808626     -1.30505016
H      -2.28039581     -0.13421302      1.15883711
H      -2.49400061      1.00192280     -0.18465781
H      -2.92017991     -1.31808637     -0.65921654
