16
b3lypvtz=-204459.2585474
C       1.78929647      1.32662817     -0.12716257
C       1.38097902     -0.11097109      0.02549699
N       2.44833361     -0.99517545     -0.15645569
C       0.15988366     -0.54485138      0.37955227
C      -1.05289224      0.27927663      0.71077958
C      -2.07751137      0.16662074     -0.40032498
O      -3.17278037     -0.31963361     -0.28496549
H       0.98002308      2.01817077      0.08613956
H       2.62394037      1.55239418      0.54035437
H       2.13033392      1.52008349     -1.14861204
H       3.12596051     -0.71239706     -0.84791133
H       2.18923307     -1.96432245     -0.26177969
H       0.00864230     -1.61875703      0.43968512
H      -1.52416615     -0.05429718      1.63761859
H      -0.79873212      1.33630574      0.82169713
H      -1.72596676      0.54813954     -1.38338380
