15
b3lypvtz=-216938.87581228
C      -3.01242234     -0.08348922     -0.00007109
C      -1.66188913     -0.78530280     -0.00002222
C      -0.47156102      0.16325495     -0.00000116
O      -0.61832244      1.37267480     -0.00002726
C       0.85630743     -0.47871214      0.00001901
C       1.97100154      0.26346697      0.00000972
O       3.23953282     -0.18114222      0.00001784
H      -3.82453807     -0.81137925     -0.00008867
H      -3.12057876      0.55403701     -0.87685014
H      -3.12063406      0.55405609      0.87668726
H      -1.55977372     -1.44408050      0.86979215
H      -1.55971996     -1.44409600     -0.86981865
H       0.91131881     -1.56223926      0.00003586
H       1.91772200      1.34425767     -0.00000688
H       3.25271789     -1.14655308      0.00003223
