14
b3lypvtz=-201285.81247792
C      -1.53021067      1.45531494     -0.00004930
C      -1.14244551     -0.00055752     -0.00000146
N      -1.95941658     -0.97170278      0.00007444
C       0.33309173     -0.37458664     -0.00005128
N       0.71949535     -1.58248677     -0.00014213
C       1.38496946      0.70109408      0.00002043
N       2.63112836      0.48391676      0.00011075
H      -1.13190158      1.96928847      0.87749574
H      -1.13184102      1.96925322     -0.87758692
H      -2.61403449      1.56146329     -0.00008689
H      -2.92761294     -0.65496268      0.00009716
H      -0.09727410     -2.19944819     -0.00015821
H       1.05005586      1.73635961      0.00008736
H       2.79217814     -0.52945279      0.00007332
