20
b3lypvtz=-182676.1169974
C       0.60626063     -0.98497967      1.19823085
C       0.78077172     -0.02076943      0.01502544
C       1.94930017     -0.49779577     -0.86146664
C       1.08902745      1.39195785      0.53743687
C      -0.50248496     -0.01749757     -0.86390276
C      -1.75659150      0.45326412     -0.17970091
N      -2.79056225     -0.22473056      0.09885752
H      -0.22695773     -0.69104671      1.83814148
H       1.50873258     -1.00569262      1.81240303
H       0.41744634     -2.00358790      0.85138546
H       2.11176946      0.17576348     -1.70579334
H       1.76166528     -1.49688195     -1.26073232
H       2.87489527     -0.53803449     -0.28344516
H       1.17189663      2.10856275     -0.28301347
H       2.03704397      1.39731312      1.07901854
H       0.31981968      1.75077801      1.22256807
H      -0.66972491     -1.02711722     -1.25069518
H      -0.31972600      0.63313672     -1.72659031
H      -1.77859360      1.50792204      0.10520891
H      -2.67936422     -1.19470320     -0.20832210
