15
b3lypvtz=-216905.18865643
O       2.29309830      0.07688939     -0.08023508
C       1.00234505      0.33243824      0.43485925
C       0.06426743      1.11270967     -0.54506669
C      -0.97205931     -0.00065037     -0.75204896
C      -1.29431743     -0.45780873      0.68450300
C       0.15394339     -0.94919772      0.53557464
O      -0.11736027     -1.19502830     -0.89056401
H       2.16955062     -0.45266689     -0.87866333
H       1.14586310      0.83143285      1.39198276
H       0.59170842      1.37045189     -1.46207472
H      -0.36218271      2.01973009     -0.11660486
H      -1.71851927      0.09657962     -1.53502960
H      -2.00414128     -1.28055037      0.71120548
H      -1.52473922      0.29619855      1.43752907
H       0.57254317     -1.80062793      1.06473303
