13
b3lypvtz=-239488.00026794
C      -1.85359377      0.01944722      0.18400151
C      -0.45840946     -0.49690852      0.19097829
C       0.62631604      0.20896134     -0.11593522
C       1.96077051     -0.41864705     -0.07143619
O       2.20807426     -1.56353457      0.22635010
O       2.93280206      0.46444262     -0.41640873
O      -1.88481454      1.38300108     -0.19690634
H      -2.28137397     -0.12692007      1.18668779
H      -2.44887110     -0.60210958     -0.50089586
H      -0.33978314     -1.53805678      0.47281954
H       0.56416218      1.24792967     -0.40295124
H       3.77132650     -0.01710653     -0.36399746
H      -2.79660557      1.68561399     -0.19230620
