16
b3lypvtz=-202053.95512058
C       2.73704876     -0.09755697      0.21161539
C       1.71067606     -0.87262381     -0.14964116
N       0.35143090     -0.60121700     -0.19247810
C      -0.33630327      0.58630942     -0.05635259
N       0.10408480      1.77671613      0.05597334
C      -1.85025908      0.39750395     -0.12554100
N      -2.27542543     -0.95846302      0.23881403
H       3.73333382     -0.51152353      0.16678708
H       2.64769420      0.91049261      0.58121415
H       1.91918406     -1.88963555     -0.46180645
H      -0.27178165     -1.39507650     -0.26922796
H       1.11472258      1.82361724      0.00225200
H      -2.29502952      1.19390324      0.47416645
H      -2.14771496      0.57504335     -1.16133052
H      -3.18182865     -1.17207657     -0.15469156
H      -2.35252360     -1.05978099      1.24360590
