12
b3lypvtz=-228837.08496729
C      -2.30287105     -0.13705278     -0.17904000
C      -1.09327876     -0.37546157      0.32144888
C       0.13849491      0.20799195     -0.25023524
N       0.11515542      0.97863868     -1.26134876
C       1.45295149     -0.13612517      0.40370254
N       2.55717649      0.29381636      0.01308404
F       1.32862431     -0.96805769      1.47194820
H      -2.43195372      0.50533080     -1.03990391
H      -3.18550029     -0.57917624      0.26209351
H      -0.97696786     -1.01885313      1.18162785
H       1.06360759      1.27290966     -1.49863685
H       3.33456147     -0.04396088      0.57525974
