13
b3lypvtz=-242067.16876126
N       2.94003140     -0.62158423     -0.06903367
C       1.77502489      0.11620462      0.01379738
C       0.52604236     -0.38026622     -0.01054843
C      -0.65411391      0.43929532     -0.01376061
F      -0.43669499      1.78697476      0.00608850
C      -1.93188932      0.04692907     -0.01264041
O      -2.25749870     -1.29067192      0.05739719
H       2.86414056     -1.60884290      0.11926902
H       3.76060613     -0.20595719      0.33863978
H       1.92638162      1.18735987      0.04343945
H       0.35139273     -1.44851851     -0.03874959
H      -2.73537675      0.77164349     -0.00867846
H      -3.09081001     -1.43435816     -0.39885915
