17
b3lypvtz=-191978.66479621
C      -3.66412068     -0.35698809      0.03502031
C      -2.35360225      0.35937057      0.07006099
N      -1.24253275     -0.25011674     -0.05419218
C      -0.05245485      0.45707074     -0.00581000
C       1.12019689     -0.18854164     -0.14839744
N       2.36771402      0.38586417     -0.20858087
C       3.53969450     -0.37618381      0.18469684
H      -4.29851243      0.02598010     -0.77041313
H      -3.50627856     -1.42365963     -0.11419445
H      -4.21845100     -0.20563329      0.96665119
H      -2.39027372      1.44935975      0.21036826
H      -0.07943282      1.54081124      0.13626295
H       1.10221099     -1.26452387     -0.27615514
H       2.40014177      1.36400812      0.03492272
H       4.43941344      0.15117155     -0.13056131
H       3.60306258     -0.55748167      1.26517991
H       3.52737486     -1.34317049     -0.31926064
