15
b3lypvtz=-216932.10324058
O       2.49783074     -1.08830486      0.42297185
C       1.28045939     -0.53221803      0.20163670
C       0.91016004      0.71711224      0.50782525
C      -0.50149901      1.19841955      0.29833893
C      -1.41830333      0.01105270     -0.01336393
C      -0.71446509     -0.94782782     -0.95973509
O       0.49744147     -1.46113187     -0.38205701
H       3.01937207     -0.47604673      0.95184297
H       1.64294542      1.38842739      0.93596945
H      -0.86277263      1.71796895      1.19019889
H      -0.55023721      1.93092000     -0.51589841
H      -2.35752675      0.34096448     -0.46159761
H      -1.66511613     -0.52488666      0.90604087
H      -1.31612685     -1.82678626     -1.18153972
H      -0.46216214     -0.44776307     -1.90053312
