13
b3lypvtz=-190466.09559766
C       2.49994319     -0.28956907     -0.00001581
C       1.14887032     -0.91016945      0.00000701
C      -0.03554860     -0.27359878      0.00001675
C      -0.11739945      1.15558652      0.00001303
N      -0.23062316      2.30285481      0.00001273
C      -1.31186592     -1.02428434      0.00001532
N      -2.49194770     -0.56538932     -0.00004709
H       2.46000835      0.79777080     -0.00001788
H       3.06666114     -0.62037734      0.87480932
H       3.06663258     -0.62038114     -0.87485810
H       1.11320819     -1.99536747      0.00001771
H      -1.18459253     -2.10836272     -0.00002253
H      -2.50346742      0.45736149     -0.00004446
