13
b3lypvtz=-213774.67579996
N      -2.44592545      0.07327767      0.00016340
C      -1.48490222     -0.74875018      0.00015026
N      -0.12337557     -0.45663457     -0.00003591
C       1.07841172     -1.31460245     -0.00004845
C       1.92907324     -0.01597481     -0.00023805
C       0.59143607      0.73749715     -0.00021314
O       0.23028152      1.88220673     -0.00030951
H      -2.11453826      1.03794316      0.00001190
H      -1.68292959     -1.82079435      0.00029747
H       1.17178114     -1.93166570     -0.89302147
H       1.17191033     -1.93153083      0.89300534
H       2.53198801      0.15171908     -0.89007353
H       2.53214106      0.15190911      0.88945669
