13
b3lypvtz=-190475.46497927
C      -0.54567669      1.60856371     -0.71047599
C      -0.65756051      0.60355514      0.44567785
C      -1.41137382     -0.58751184      0.04470032
N      -2.01115499     -1.51811280     -0.26689771
C       0.72012864      0.21372946      1.04299056
C       1.64534939     -0.35210527      0.06595949
N       2.37676303     -0.78200633     -0.71020232
H       0.01563868      1.18456744     -1.54166736
H      -1.53427219      1.88787739     -1.07017266
H      -0.03508790      2.50929953     -0.36908322
H      -1.22076438      1.06514608      1.26077276
H       1.17774562      1.10890347      1.46855107
H       0.58723912     -0.50208597      1.85524922
