16
b3lypvtz=-204460.56979748
C      -2.61102115      0.36289992     -0.26671928
C      -1.78010076     -0.80349275      0.27218392
C      -0.32914811     -0.87279512     -0.22225624
C       0.62129681      0.15586209      0.41132281
O       0.32763557      1.50907393      0.09351411
C       2.02256971     -0.16284815      0.06409933
N       3.10454069     -0.40863631     -0.24025379
H      -2.62712073      0.35748310     -1.35945647
H      -2.21652614      1.32381917      0.05790349
H      -3.64424672      0.28614078      0.07532146
H      -1.78244878     -0.78430410      1.36657789
H      -2.26549775     -1.74103311     -0.00988851
H      -0.28942910     -0.76259975     -1.31104858
H       0.07827518     -1.86273671     -0.00230326
H       0.53467177      0.09830301      1.49873844
H       0.42139951      1.63256898     -0.85801431
