16
b3lypvtz=-204444.58822932
C      -2.06959520     -1.17394952     -0.05690026
C      -0.73171704     -1.15429551      0.00046119
N       0.07585003     -0.13196579      0.45627319
C      -0.53206372      1.11027466      0.88885843
C       1.46949657     -0.10014119      0.07323186
C       1.73462855      0.60033334     -1.25414491
O       2.71673583      1.25395607     -1.48637911
H      -2.68639924     -0.32988674      0.21311425
H      -2.57215493     -2.07364659     -0.37614435
H      -0.17344911     -2.03260690     -0.30526632
H      -0.99462122      1.67044009      0.06603035
H      -1.30715117      0.90265232      1.62844984
H       0.22534082      1.74067171      1.35232661
H       2.07526215      0.38299327      0.84235053
H       1.83290438     -1.12837630     -0.02711539
H       0.93703329      0.46364708     -2.01524592
