18
b3lypvtz=-205202.88457063
C       1.78932848     -1.56996504     -0.09022485
C       1.57837166     -0.27637906     -0.36327801
N       0.50535846      0.51890932      0.00161451
C       0.72671328      1.95749839      0.03863335
C      -0.48485357     -0.00970635      0.93542072
C      -1.57924999     -0.80231253      0.22319699
O      -2.26896208     -0.00557779     -0.73003857
H       2.66835967     -2.05463831     -0.48615060
H       1.11557535     -2.17589765      0.49640531
H       2.30539012      0.25435366     -0.96815522
H       1.36212346      2.25121948     -0.79644892
H       1.21003827      2.28928808      0.96759659
H      -0.22334351      2.48158244     -0.05927054
H      -0.00311685     -0.63213466      1.69980743
H      -0.95099755      0.83318441      1.44558159
H      -1.15954889     -1.69541992     -0.24981488
H      -2.32292135     -1.12647806      0.95255992
H      -1.61274595      0.28858760     -1.37165981
