12
b3lypvtz=-200464.44377887
C      -3.54899935     -0.19147272      0.00022539
C      -2.34600797     -0.19193436      0.00002691
C      -0.93164475     -0.28326929     -0.00023319
N      -0.21877055      0.78868998      0.00013136
N       1.11722371      0.69670907     -0.00024495
N       1.79474202     -0.46092848     -0.00011680
C       3.06903589     -0.42059151      0.00035204
H      -4.60992267     -0.17182780      0.00040141
H      -0.48356782     -1.27252492     -0.00073704
H       1.59962832      1.58552038      0.00087165
H       3.63945632      0.51076097      0.00071741
H       3.60435185     -1.35927632      0.00036681
