16
b3lypvtz=-202010.00314594
C      -1.78494045     -1.20787979     -0.26539480
C      -1.06931140      0.08258860      0.09612175
N       0.35485896      0.08929885     -0.22755808
N       0.88778326     -1.01845273     -0.80181333
C       2.12583256     -1.06321120     -1.10372658
N       1.13665551      1.14463912      0.02417614
C       0.67360795      2.20828211      0.56477188
H      -1.72683108     -1.41215032     -1.33233380
H      -1.36176222     -2.06094530      0.26060544
H      -2.83511690     -1.11044089      0.01495380
H      -1.53897368      0.92738999     -0.42160809
H      -1.17408904      0.27944211      1.16972634
H       2.47109359     -1.98230451     -1.55792057
H       2.82167592     -0.24945482     -0.93101120
H       1.37845839      3.01184166      0.73139264
H      -0.35904136      2.36115713      0.86401845
