13
b3lypvtz=-213740.88268287
N       1.23839233      0.98709568      0.39819196
C       0.78901148     -0.14307211      0.05384655
C       1.68892557     -1.34975977     -0.15329530
O       2.88110708     -1.29305268     -0.00034375
N      -0.57929937     -0.43691809     -0.18240517
C      -1.38872286      0.67002277     -0.75049534
C      -1.55389438      0.29975170      0.66074856
H       2.25409085      0.93056901      0.50157705
H       1.16907991     -2.27595955     -0.45285764
H      -2.11166311      0.35041771     -1.48899475
H      -0.85527547      1.58803536     -0.96021285
H      -2.39997543     -0.29632935      0.97537183
H      -1.13177658      0.96919932      1.39896885
