15
b3lypvtz=-214504.35142162
C      -0.49362307     -1.41015536     -0.33703039
C      -0.13618257      0.04756311     -0.23228444
C      -1.04255166      1.03675194     -0.39256904
N      -2.36812315      0.88664325     -0.73460989
C       1.23365149      0.42910842      0.02884983
N       2.16582549     -0.43337248      0.17826454
O       3.39947329      0.20877431      0.43436332
H       0.19545866     -2.01177968      0.25250755
H      -0.43429740     -1.76887484     -1.36863110
H      -1.50629829     -1.60862441      0.02335544
H      -0.72531427      2.06906209     -0.30408586
H      -2.99291102      1.62914532     -0.47059558
H      -2.77031717     -0.03222129     -0.64643683
H       1.46982939      1.49168455      0.09883308
H       4.00538028     -0.53350493      0.51726936
