13
b3lypvtz=-234640.11434403
C       0.32988229      0.31536502     -0.11860346
C      -0.91158894     -0.16582466      0.19867521
N      -1.96329539      0.66183126      0.52645009
N      -1.20797262     -1.50586774      0.21776235
N       1.24460534     -0.59329065     -0.59922814
N       2.40850952     -0.33665699     -0.89608863
O       2.74422624      1.06881938     -0.68098250
H       0.57821290      1.35667144      0.01223478
H      -1.72327944      1.63312617      0.64249570
H      -2.57539656      0.31614350      1.25032731
H      -2.12646704     -1.75317812     -0.11760106
H      -0.46291315     -2.07481663     -0.15924994
H       3.66547684      1.07767801     -0.95994601
