20
b3lypvtz=-205975.00278074
C      -0.04624430      0.56321949      1.53544780
C      -0.03471234      0.35742479      0.01548360
C      -0.75221801      1.52330592     -0.68078989
C       1.41690870      0.30866324     -0.51309334
N       2.20471072     -0.79544101      0.04787418
C      -0.72798162     -0.97217485     -0.34177992
O      -2.09603899     -1.04968473      0.04813267
H       0.58060809     -0.18146875      2.02459823
H      -1.06003160      0.47688341      1.92613228
H       0.33742890      1.55265140      1.79561855
H      -0.79702741      1.38010651     -1.76406532
H      -1.77161914      1.64240942     -0.30889519
H      -0.23373397      2.46573939     -0.49288523
H       1.38723825      0.29512004     -1.61224723
H       1.90626032      1.24275306     -0.22831541
H       2.06130287     -1.65187632     -0.47188339
H       3.19349400     -0.58898817     -0.00339604
H      -0.62789498     -1.15611548     -1.42069153
H      -0.23586506     -1.79018964      0.18405699
H      -2.60658043     -0.44640473     -0.49899481
