17
b3lypvtz=-215269.47374823
C       1.90701187     -0.11966373     -0.17219320
C       0.42227683      0.14271181     -0.09949265
N      -0.00507600      1.50641996      0.13534069
C      -0.52999400     -0.61412424     -1.00354433
O      -1.64164293      0.08063673     -1.48008743
C      -0.48563314     -0.95649898      0.46905479
N      -1.65501964     -0.72481352      1.26194483
H       2.11230605     -1.16691560     -0.40019277
H       2.37854385      0.48309418     -0.95428329
H       2.39561393      0.11691026      0.77741694
H      -0.02535538      1.73840943      1.12140101
H       0.61310449      2.16358552     -0.32467152
H      -0.14291777     -1.32440985     -1.72295669
H      -1.53959586      0.98284838     -1.12789957
H       0.04774075     -1.86733575      0.72254664
H      -2.37383676     -0.27292226      0.71005539
H      -1.47752629     -0.16783234      2.08746115
