14
b3lypvtz=-180405.48429493
C       2.71356043      0.32294268      0.00000229
C       1.68980923     -0.53252625     -0.00000182
C       0.27522175     -0.19870513      0.00000065
C      -0.75159276     -1.12446136     -0.00001921
N      -1.93983247     -0.44865465      0.00001760
H      -2.84781870     -0.87581190      0.00000306
C      -1.70092634      0.90377336      0.00002363
C      -0.34495069      1.09101012     -0.00002012
H       2.56821317      1.39577189     -0.00002130
H       3.73570493     -0.02899949      0.00001907
H       1.91033067     -1.59631516     -0.00001416
H      -0.71616475     -2.20037229      0.00001493
H      -2.51008423      1.61300862      0.00003811
H       0.15386276      2.04500657     -0.00001674
