13
b3lypvtz=-216144.46023901
C      -1.43979272      0.94765965     -0.29537085
C      -0.84779358     -0.08296490      0.62160026
O      -1.25985429     -0.30220812      1.73618707
C       0.34079568     -0.93518306      0.10484833
C       1.48180212     -0.06758962     -0.20975331
C       2.41190592      0.64551237     -0.46368802
O       0.66568866     -1.92595405      1.04456802
H      -0.67430904      1.65700765     -0.61202029
H      -2.24972320      1.46857839      0.20843166
H      -1.81983088      0.46339224     -1.19822601
H       0.00787343     -1.41564175     -0.82563769
H       3.24600277      1.26423090     -0.68414146
H       0.13723512     -1.71683969      1.83330722
