16
b3lypvtz=-227758.32551155
C      -0.10954874     -1.59787623      0.62855919
C       0.25278002     -0.33678948     -0.09589076
C       1.50585615      0.11902277     -0.24042616
O       2.60017597     -0.48459217      0.27249733
O       1.80229738      1.24654738     -0.92739195
N      -0.74861524      0.48514677     -0.73084651
C      -1.74663882      1.07954464      0.16559710
H      -0.75783806     -1.41210312      1.49071658
H      -0.64352343     -2.29532329     -0.02724042
H       0.78252130     -2.10429032      0.99348906
H       3.37059671      0.02326566     -0.00617514
H       0.92871343      1.54760590     -1.24942574
H      -1.22235218     -0.03153303     -1.46462403
H      -2.44740720      1.67485287     -0.42154941
H      -1.24554315      1.74244619      0.87132984
H      -2.32147415      0.34407548      0.74138105
