12
b3lypvtz=-221400.414187
C       1.85280293      1.36495801      0.27616019
N       1.17596722      0.66120295     -0.52391626
C       0.65892307     -0.57403350     -0.09973961
N       1.31002449     -1.65195985      0.08062446
N      -0.72102313     -0.61825632      0.01828424
N      -1.48842364      0.47663151     -0.03997579
N      -2.70035290      0.22345386      0.10977933
H       2.01588410      1.09951087      1.32426799
H       2.30278229      2.28593023     -0.08557794
H       2.30202168     -1.50852257     -0.07975772
H      -1.16031925     -1.51800893      0.19156723
H      -3.18041087      1.12298875      0.04382289
