14
b3lypvtz=-226989.84978686
C       2.57369675     -0.53389093      0.00000134
N       1.15721109     -0.21611339      0.00000174
C       0.80955401      0.99843299     -0.00000298
O      -0.43282688      1.47520622     -0.00000328
C      -1.62617567      0.73638062      0.00000395
C      -1.88273702     -0.57708716      0.00000528
O      -1.08772126     -1.65182156      0.00000173
H       2.81439406     -1.13362001     -0.87943712
H       3.21226223      0.35630609     -0.00000237
H       2.81439584     -1.13361392      0.87944346
H       1.51484667      1.83057797     -0.00000776
H      -2.45035913      1.42935445      0.00000725
H      -2.93629910     -0.83162626      0.00001069
H      -0.14833759     -1.32049911      0.00000106
