17
b3lypvtz=-191980.52056135
N       2.54348368     -0.39567665      0.06284007
C       1.53069340      0.61577102     -0.25370320
C       0.20670670      0.27089712      0.41356193
C      -0.96296169      1.22088853      0.04624958
C      -2.13030365      0.27221668     -0.09985291
C      -1.67608689     -0.98040883     -0.11301761
N      -0.27894014     -1.06960662     -0.00550510
H       2.35000111     -1.23826669     -0.46677595
H       3.46239079     -0.08110703     -0.22315900
H       1.87548149      1.57875551      0.13114488
H       1.35440929      0.73759062     -1.33145267
H       0.36020300      0.27250325      1.49834372
H      -1.11594045      1.99104936      0.80426098
H      -0.75588356      1.74168810     -0.89722222
H      -3.15224410      0.57335478     -0.26387434
H      -2.24874086     -1.88749351     -0.24485507
H       0.05539787     -1.82451064      0.57680292
