13
b3lypvtz=-237071.11097683
N       2.98478840     -0.37082909     -0.14569502
C       1.66256216     -0.38091246      0.17805777
N       0.83711085      0.47496971     -0.28806428
C      -0.52270281      0.30770410     -0.07116566
O      -1.20806067      1.47975663      0.18312213
C      -1.22899397     -0.82689965     -0.14896894
O      -2.58838092     -0.89320957      0.03467864
H       3.63573474     -0.83093823      0.46586660
H       3.32730860      0.42682488     -0.65695368
H       1.35800025     -1.20090758      0.83348978
H      -0.57132872      2.19775042      0.09888864
H      -0.78199347     -1.77090215     -0.41257907
H      -2.89835945     -0.00682499      0.25708009
