16
b3lypvtz=-204434.84418691
C      -2.31488002      0.57173390     -0.79468232
C      -1.19805613      0.46946636      0.21154664
C      -0.01726649     -0.40055245     -0.03525071
N      -1.01502740     -0.75158505      1.00733661
C       1.34256512     -0.06652662      0.42713927
C       2.44120778     -0.36761001     -0.26038561
O       3.72874754     -0.08770596      0.08968020
H      -3.27294987      0.74871538     -0.29998065
H      -2.40259346     -0.34740555     -1.37869239
H      -2.14328867      1.39600306     -1.49030164
H      -1.02900127      1.37234814      0.79119151
H      -0.05312983     -0.97420454     -0.95699889
H      -1.62917588     -1.48562031      0.66688252
H       1.41808237      0.44199999      1.38402946
H       2.40821710     -0.88718196     -1.20994539
H       3.73654910      0.36812563      0.93922465
