14
b3lypvtz=-201256.87769605
C      -3.37455056      0.07239747     -0.00001161
C      -2.10755949      0.48603784      0.00000446
N      -1.05692997     -0.43139324      0.00000891
N       0.07369426      0.12075742      0.00001856
N       1.07413398     -0.75586112     -0.00000062
C       2.40918394     -0.37000030     -0.00000494
C       2.88610929      0.87302770     -0.00001339
H      -4.18933878      0.78102038      0.00001558
H      -3.61130347     -0.98269266     -0.00005760
H      -1.84017734      1.53929774      0.00001158
H       0.81626329     -1.73661949     -0.00001511
H       3.07131819     -1.22572565     -0.00000016
H       2.24010469      1.73726840     -0.00002531
H       3.95376698      1.02782951     -0.00000735
