18
b3lypvtz=-202785.78263538
C       3.13824743     -0.83867221      0.01031644
N       2.38753732      0.18999793     -0.00733192
N       1.06843205      0.03800418     -0.27529881
C       0.20706501      1.10177384      0.21072199
C      -1.22680357      0.84222457     -0.22496034
N      -1.72394024     -0.40490852      0.35264286
C      -3.05096177     -0.78190838     -0.11711661
H       4.19729511     -0.69284115      0.17378599
H       2.76592299     -1.85468124     -0.14533939
H       0.68119592     -0.88845308     -0.11030558
H       0.24848405      1.19465790      1.30696215
H       0.56127819      2.04633857     -0.20286278
H      -1.84833014      1.71291785      0.03697722
H      -1.25615436      0.74158786     -1.31280283
H      -1.73301138     -0.32301266      1.36314912
H      -3.38026503     -1.68363060      0.39942680
H      -3.81432988     -0.00219518      0.02939297
H      -3.00922571     -1.00719367     -1.18433028
