14
b3lypvtz=-203672.9548644
C      -2.44519133     -0.34216283      0.31960602
C      -1.32736868     -0.71397524     -0.29043929
C      -0.01239823     -0.04217339     -0.13546412
C       1.19348156     -0.92407782     -0.11925214
O       2.26152527     -0.58699086      0.33349256
C       0.24576335      1.32333461     -0.74110723
N       0.06324552      1.16848469      0.68736960
H      -3.37464694     -0.86882106      0.15240280
H      -2.45371697      0.49893917      0.99993296
H      -1.33575981     -1.56407528     -0.96673889
H       1.05212814     -1.93270017     -0.55293943
H      -0.57719257      1.78581962     -1.27106273
H       1.24011450      1.52047316     -1.12366647
H       0.97210422      1.17175940      1.14701134
