13
b3lypvtz=-190465.19110551
C      -1.74138435     -1.52378583      0.00000454
C      -0.70174245     -0.43604712     -0.00000296
C      -1.21003464      0.90312931      0.00000151
N      -1.66990380      1.96076506      0.00000370
C       0.62296258     -0.66935510     -0.00001208
C       1.66461564      0.35442400     -0.00000314
N       2.92001192      0.14284066      0.00001620
H      -2.38551097     -1.44128565      0.87761386
H      -2.38552981     -1.44128598     -0.87759065
H      -1.27160307     -2.50537435      0.00000232
H       0.95949148     -1.70139273     -0.00002243
H       1.33007809      1.39183958      0.00002385
H       3.12405538     -0.85977286      0.00000227
