13
b3lypvtz=-213769.09833261
N       3.38801865      0.70199525     -0.00000038
C       2.44025246      0.05066713      0.00007197
C       1.22331831     -0.75304471      0.00001572
C      -0.02958141      0.12230661      0.00004937
O      -1.13903958     -0.77114094     -0.00004720
C      -2.38973713     -0.23276920     -0.00004210
N      -2.76113533      0.96927664      0.00003000
H       1.22023401     -1.39935584      0.87923591
H       1.22027288     -1.39923325     -0.87929554
H      -0.05257464      0.75961840      0.88731855
H      -0.05252717      0.75975309     -0.88712413
H      -3.11521788     -1.04071786     -0.00012188
H      -1.99863718      1.64275467      0.00009769
