17
b3lypvtz=-191976.99830047
C       1.91338151     -0.64768009     -0.69039949
N       1.15368610     -0.23628618      0.48735578
C       0.76089600      1.18664523      0.45009925
C      -0.56632852      1.25037971     -0.32998926
C      -1.19190320     -0.10285658     -0.05306267
N      -2.38728589     -0.40017847     -0.33947129
C      -0.11603547     -0.95615976      0.62677390
H       2.83813449     -0.07220909     -0.74016348
H       1.38067504     -0.52042897     -1.64691499
H       2.18437356     -1.69970348     -0.59638782
H       0.60978761      1.53229001      1.47635493
H       1.55673979      1.78824338      0.01448369
H      -1.22703780      2.06330485     -0.03230521
H      -0.39410102      1.34987451     -1.40451517
H      -2.60319181     -1.36277131     -0.07359140
H      -0.05885806     -1.96082155      0.20763690
H      -0.37250933     -1.05642821      1.68797134
