14
b3lypvtz=-203710.73271686
C      -2.13989498      0.16492544      0.13534183
C      -0.65979438     -0.00342297      0.06082692
C       0.32408808      0.87772377     -0.33935584
C       1.57168005      0.20762510     -0.21549013
C       1.33156060     -1.05855051      0.25341566
N      -0.03838440     -1.16690935      0.41554457
O       2.81973454      0.69501638     -0.50048020
H      -2.51640257      0.03583528      1.15418549
H      -2.41792083      1.16493790     -0.19332778
H      -2.66655794     -0.55046541     -0.50287475
H       0.16207053      1.88757220     -0.68138133
H       2.00478338     -1.86529808      0.47741265
H      -0.50827870     -1.98873559      0.74824017
H       2.73331661      1.59974585     -0.81205727
