18
b3lypvtz=-181906.54262284
C       2.86553877     -0.04118000     -0.02839858
C       1.60302932      0.06363419     -0.42465279
C       0.40128822     -0.05435503      0.46282330
C      -0.52419160     -1.24530994      0.05631618
C      -1.92477190     -0.63357942     -0.05389896
N      -1.62848493      0.72907309     -0.49311787
C      -0.53659697      1.18182114      0.36778252
H       3.68942524      0.05283440     -0.72362635
H       3.12067512     -0.22645358      1.00896661
H       1.38615585      0.24835998     -1.47417836
H       0.74088791     -0.17483522      1.49223316
H      -0.47615802     -2.06165291      0.77589421
H      -0.21514646     -1.64090329     -0.91137237
H      -2.55847464     -1.14808340     -0.77735769
H      -2.43126200     -0.66821481      0.92470813
H      -2.43405185      1.34030436     -0.45126612
H      -0.03733308      2.05182215     -0.06060048
H      -0.87485399      1.45379331      1.37957648
