16
b3lypvtz=-204454.91065349
C       1.94616175     -0.30636834     -0.07496835
C       0.45396083     -0.33055202     -0.05941842
C      -0.32979195     -1.59758928     -0.25133137
O      -1.70749393     -1.23287916     -0.10661905
C      -1.81672645      0.17949233      0.00532770
C      -0.40314388      0.68389643      0.08409863
N      -0.17051910      2.05316861      0.17893400
H       2.34832199     -0.54313160     -1.06566757
H       2.36338159     -1.04298788      0.61840153
H       2.34501005      0.66923953      0.20935641
H      -0.17025128     -2.04693235     -1.24297472
H      -0.08549799     -2.36569583      0.49419755
H      -2.34383950      0.59900583     -0.86296828
H      -2.40313656      0.43266150      0.89942789
H       0.78412578      2.30508214      0.38713371
H      -0.81056136      2.54339009      0.78707034
