18
b3lypvtz=-205199.81543434
C       3.61054163     -0.28861652      0.08010037
C       2.32017201      0.48450799     -0.15010005
N       1.15448429     -0.33225474      0.18194314
C      -0.09223548      0.29667651      0.19518374
C      -1.22929758     -0.20153300     -0.29260424
O      -2.40982991      0.49832391     -0.20895766
C      -3.51759510     -0.28007805      0.21394635
H       4.47771415      0.33137747     -0.15070570
H       3.65888638     -1.17297710     -0.56004642
H       3.68285816     -0.61872991      1.11675047
H       2.29532530      1.36616791      0.49484596
H       2.28414757      0.85352847     -1.18572142
H       1.14699665     -1.20479433     -0.32999637
H      -0.11114310      1.26409060      0.68386863
H      -1.28366080     -1.16374551     -0.79910302
H      -4.39618163      0.36003875      0.16061226
H      -3.38653835     -0.63448079      1.24176434
H      -3.66749119     -1.14675967     -0.44064237
