14
b3lypvtz=-224608.35538097
N      -0.10843507      1.23761823      0.05253001
C      -0.29244445     -0.03277062      0.03327513
C      -1.67296367     -0.67040573      0.07528555
O      -2.73775314      0.26414074      0.00596820
N       0.70232291     -0.99419219     -0.01544545
C       1.95205350     -0.64848591     -0.02888576
N       2.46447881      0.58796660     -0.01683790
H      -1.00975876      1.70920892      0.12049469
H      -1.77636531     -1.20113947      1.02346176
H      -1.72981189     -1.42373031     -0.71568925
H      -2.84902492      0.53504622     -0.91027687
H       2.68682983     -1.45115071     -0.05616119
H       1.79820060      1.35874853      0.01832985
H       3.45842556      0.72855571     -0.01537877
