17
b3lypvtz=-171086.16760437
C       2.25334111     -0.00000022      0.49551036
C       1.03104498     -0.00000016     -0.44463401
C       0.20513824      1.24605096     -0.26750363
C      -1.08701580      1.24927303      0.04067414
C      -1.89498747      0.00000012      0.23606921
C      -1.08701598     -1.24927293      0.04067433
C       0.20513805     -1.24605113     -0.26750350
H       2.87333957     -0.88289133      0.32789815
H       2.87333976      0.88289072      0.32789798
H       1.93523813     -0.00000008      1.53909533
H       1.43050291     -0.00000025     -1.46917455
H       0.72590579      2.18980720     -0.39544159
H      -1.60740870      2.19365938      0.15828307
H      -2.34656337      0.00000025      1.23711275
H      -2.75360262      0.00000013     -0.44861919
H      -1.60740903     -2.19365918      0.15828348
H       0.72590543     -2.18980749     -0.39544132
