18
b3lypvtz=-181901.83476439
C       2.22080589     -0.36813921     -0.44687673
C       0.86920238      0.08890579      0.06144240
C       0.69387720      1.59251933      0.08473199
C       0.20581044     -0.72602891      1.13401123
C      -0.32971470     -0.80631515     -0.27322151
C      -1.64872229     -0.25406549     -0.67440926
N      -2.55972519      0.26031973      0.04265420
H       2.30788342     -1.45543110     -0.43579533
H       3.02324456      0.03728430      0.17495349
H       2.39148303     -0.02699620     -1.47077793
H      -0.30187983      1.88714252      0.41277340
H       0.85678975      2.02036464     -0.90737612
H       1.42042566      2.04566776      0.76348926
H      -0.38541337     -0.19762168      1.87159701
H       0.71913321     -1.59475268      1.52421702
H      -0.06155988     -1.69361478     -0.83608608
H      -1.84458300     -0.29963056     -1.74910829
H      -2.30197829      0.23856168      1.03207227
