16
b3lypvtz=-202049.2404662
N       2.72979324      0.56384133      0.08163360
N       1.89384549     -0.53363169     -0.29213354
C       0.65199293     -0.28434761     -0.15032846
C      -0.46005530     -1.23770110     -0.52270232
C      -1.70698568     -0.58857072      0.10313058
C      -1.35233381      0.90589153      0.13393366
N       0.09180947      0.87736585      0.36390700
H       3.68075920      0.23024556     -0.00437839
H       2.58571764      0.78068188      1.06848158
H      -0.54117108     -1.27883806     -1.61207083
H      -0.26653399     -2.24863295     -0.17161842
H      -2.62165310     -0.78652168     -0.45264063
H      -1.84683183     -0.95057745      1.12269917
H      -1.86686115      1.44617538      0.92919465
H      -1.60486278      1.38555651     -0.81965590
H       0.63337075      1.71906322      0.22244825
