11
b3lypvtz=-259608.22360222
C       2.35414883      0.00022618     -0.45951029
O       2.81410766      1.09351580     -0.35118517
O       1.05401931     -0.36597142     -0.38371946
N       0.16080405      0.73631659     -0.14457912
C      -1.03597789      0.26753833     -0.07514461
N      -1.46267576     -1.00680418     -0.24356455
O      -2.03389650      1.14002127      0.16007712
H       2.92444355     -0.92138958     -0.64631231
H      -2.38134449     -1.23304330      0.09504514
H      -0.76243633     -1.72655858     -0.21889313
H      -1.63119241      2.01614891      0.23918418
