17
b3lypvtz=-217670.7186634
C       2.11759177     -1.18599293     -0.09762291
C       1.67644775      0.24497893      0.20706344
C       0.26549779      0.57550741     -0.26573693
O       0.07105155      1.97298319     -0.05125711
C      -0.80362682     -0.19777216      0.46847835
C      -1.53558472     -1.30867342     -0.14250901
O      -2.13484160     -0.01310212     -0.04228402
H       3.14619626     -1.34832925      0.22564552
H       1.49442980     -1.92309682      0.41120801
H       2.07245522     -1.39640191     -1.16838358
H       1.73638805      0.44283721      1.28070133
H       2.35132992      0.95549037     -0.27362848
H       0.17623565      0.34828864     -1.33709165
H      -0.83806315      2.18093814     -0.29441282
H      -0.74285088     -0.15107425      1.55355485
H      -1.28501198     -1.62443595     -1.15017411
H      -1.97858162     -2.07200608      0.48864211
