13
b3lypvtz=-242065.04590926
C       2.84543982      0.17836133     -0.00006876
C       1.59284788     -0.63952601     -0.00006562
C       0.36569471     -0.14377256      0.00003378
F       0.12986964      1.18265666      0.00014560
O      -0.74170159     -0.92489683      0.00008185
C      -2.06703832     -0.52322760      0.00001930
N      -2.61012070      0.60447582     -0.00010843
H       3.45707319     -0.04369095     -0.87806588
H       2.63117803      1.24526165      0.00000809
H       3.45714716     -0.04380166      0.87784914
H       1.66529764     -1.71814435     -0.00014019
H      -2.65503742     -1.43494290      0.00008580
H      -1.96058404      1.38255338     -0.00016168
