14
b3lypvtz=-226985.36433659
N      -2.43607074     -0.41336993     -0.44432064
C      -1.72863126      0.50217831      0.06012675
C      -0.31864115      0.37196647      0.58364421
C       0.72205475      1.17609082     -0.22903834
O       1.87676882      0.35033887     -0.16962579
C       1.37626407     -0.95993416     -0.23293269
O       0.15665875     -0.97047199      0.50269712
H      -1.90874763     -1.29117371     -0.43886434
H      -2.15575636      1.50565245      0.14371973
H      -0.30171511      0.68597681      1.63350147
H       0.96364642      2.14344662      0.20414199
H       0.39225261      1.31005084     -1.26612573
H       2.09026389     -1.63778160      0.23262153
H       1.17952893     -1.25495979     -1.27319527
