18
b3lypvtz=-205198.23038306
C      -0.13503747      2.10618295      0.17048345
C      -0.01403415      0.65425138     -0.24143550
C       1.11290364     -0.22471636      0.32840572
O       2.20541233     -0.40276131     -0.54701907
C       0.04693764     -1.33972785      0.43590186
N      -0.98773728     -0.29128994      0.35528755
C      -2.20654869     -0.57993175     -0.36642886
H      -1.05501320      2.54995801     -0.21608767
H      -0.14710567      2.19663170      1.25752104
H       0.70283351      2.68562065     -0.22289736
H       0.01235376      0.56589205     -1.33892007
H       1.44208096      0.12547915      1.31048471
H       2.92192248     -0.83419820     -0.07273590
H       0.08632149     -1.98302798     -0.45463592
H       0.01238360     -1.95890535      1.33473526
H      -2.82592517      0.31688537     -0.42453402
H      -2.02371840     -0.93948613     -1.39357122
H      -2.77955940     -1.34311138      0.16350201
