12
b3lypvtz=-252124.30416351
C      -2.15981942     -0.18169363     -0.63614477
O      -1.65362242      0.88747430      0.17922922
C      -0.34563110      0.90664798      0.41195363
N       0.45938652      0.03320199     -0.04904507
N       1.77570700      0.30003981      0.35340617
C       2.59108743     -0.54583156     -0.08750027
F       3.88375699     -0.42313776      0.21221173
H      -3.23029484     -0.01269473     -0.70390655
H      -1.70187687     -0.15590137     -1.62419402
H      -1.95044067     -1.14501908     -0.17292817
H      -0.04167580      1.74356804      1.03436936
H       2.37342318     -1.40665397     -0.71135127
