20
b3lypvtz=-182671.71511256
C       3.25147202     -0.86985773      0.16350522
C       2.10537373     -0.07588713     -0.38476652
C       1.16423697      0.51888569      0.34121092
C       0.02265108      1.33181809     -0.19758934
C      -1.36717607      0.84119797      0.24204243
C      -1.75042558     -0.52477605     -0.31769955
N      -3.11773971     -0.87850133      0.08519596
H       3.22298648     -0.91380978      1.25297722
H       3.24231231     -1.89500013     -0.21795894
H       4.21116728     -0.43654179     -0.13280123
H       2.06002512      0.01245875     -1.46803550
H       1.21031892      0.42969220      1.42575956
H       0.07490829      1.35970708     -1.28991995
H       0.13476802      2.36716176      0.14264609
H      -2.12459055      1.56441127     -0.06806910
H      -1.40595018      0.80512099      1.33700741
H      -0.99819474     -1.26667093     -0.01921988
H      -1.72895170     -0.48056005     -1.41043406
H      -3.16220933     -1.00499764      1.09057858
H      -3.38828436     -1.76474525     -0.32482534
