14
b3lypvtz=-203663.09354047
C       3.37035602      0.12178700     -0.03815675
N       2.25697967     -0.48318571      0.04451179
C       1.08734674      0.27158050     -0.03113180
C      -0.11450048     -0.30722018      0.03360055
C      -1.37711987      0.43420986     -0.06494341
C      -2.59435712     -0.18452597     -0.61572049
O      -2.45258946     -0.00881605      0.78919614
H       4.29157981     -0.44970634      0.02245674
H       3.45688361      1.20677256     -0.16918127
H       1.17876593      1.35453480     -0.14757822
H      -0.17308771     -1.38141417      0.16416239
H      -1.29203994      1.51497860     -0.13503937
H      -3.33686234      0.44584761     -1.09571240
H      -2.55656385     -1.21218252     -0.96404391
