15
b3lypvtz=-214526.9135122
N      -0.87795304      1.39129712     -0.07533989
C      -0.53600098      0.15935354     -0.05654567
C       0.79792820     -0.43167178     -0.10703135
C       1.94118451      0.25290372      0.08005986
N       3.21151429     -0.24305893     -0.01731229
C      -1.68408221     -0.83153674      0.03736251
O      -2.93364576     -0.20169902      0.07482696
H      -0.09319991      2.03017342     -0.17604676
H       0.84696812     -1.50272533     -0.27772805
H       1.90655824      1.31422286      0.30127751
H       3.95386068      0.25476954      0.44126286
H       3.33457306     -1.24107770     -0.06139315
H      -1.62000410     -1.51148405     -0.82420134
H      -1.53588725     -1.44953247      0.93390270
H      -2.72893884      0.75017383      0.03565009
