13
b3lypvtz=-213774.65623422
C      -1.19564074      1.71437989     -0.15429204
C      -0.63258086      0.37142785      0.32946501
C      -1.59172102     -0.71452013      0.06146802
N      -2.35226469     -1.55459448     -0.13522720
N       0.62593391      0.07651496     -0.34575676
C       1.64323881     -0.12504624      0.36933228
O       2.85128816     -0.38948186     -0.14723080
H      -2.15708298      1.92061174      0.31475588
H      -1.32402290      1.69728047     -1.23505969
H      -0.49731571      2.50999650      0.10257755
H      -0.50818683      0.41202874      1.42071740
H       1.67645825     -0.10931361      1.46024102
H       2.75862760     -0.40567284     -1.11207367
