19
b3lypvtz=-192743.1894326
C      -1.50353813      0.49322742      1.11779874
C      -1.43701531     -0.22236318     -0.22720417
C      -0.08246731     -0.00051199     -0.94232361
C       1.10349371     -0.60740954     -0.25367273
C       2.17083575      0.07854461      0.16043113
N       3.34230874     -0.45002088      0.70452422
N      -2.59802387      0.17942680     -1.03323949
H      -0.68581929      0.18544060      1.76864194
H      -2.45126312      0.28459170      1.61346725
H      -1.42690159      1.57622189      0.97825448
H      -1.54390955     -1.29774529     -0.04731224
H      -0.17882121     -0.41988388     -1.95194366
H       0.07295905      1.07640812     -1.07264489
H       1.08432016     -1.68560388     -0.10807338
H       2.20872145      1.15434233      0.02039449
H       3.26348630     -1.39878771      1.03990440
H       3.79812584      0.14178841      1.38148186
H      -2.56904085      1.17980062     -1.20516314
H      -2.56745079     -0.26746612     -1.94332121
