16
b3lypvtz=-181156.18628441
C       2.45174762     -0.08245176     -0.00000193
C       0.95241654     -0.08398859      0.00000072
C       0.21756309     -1.19160370     -0.00000028
C      -1.28211952     -1.18721825      0.00000336
N      -1.93814639      0.11437765      0.00000346
C      -1.23133808      1.16197904     -0.00000388
C       0.27216783      1.25729759      0.00000414
H       2.84435921      0.44174897      0.87699479
H       2.85448654     -1.09513515      0.00000048
H       2.84435622      0.44174360     -0.87700321
H       0.70156924     -2.16361951     -0.00000223
H      -1.66442961     -1.74023837     -0.86647834
H      -1.66442437     -1.74023422      0.86649006
H      -1.76632860      2.11383011      0.00000373
H       0.58932779      1.85217916      0.86749658
H       0.58934047      1.85218942     -0.86747645
