17
b3lypvtz=-191985.36244328
C      -0.91296223      1.31548130     -0.40793911
C      -0.39448161     -0.03802409      0.08171509
N      -1.51117220     -0.74643326      0.71803340
C       0.77510800      0.15567071      1.07949243
C       1.98196119     -0.09218104      0.21726548
N       1.76942101     -0.59340347     -0.92960287
C       0.32345935     -0.79538135     -1.08316248
H      -0.10998452      1.89905247     -0.86066976
H      -1.33715132      1.88325645      0.42054442
H      -1.69085077      1.18046524     -1.16366609
H      -2.28759040     -0.83495051      0.07130849
H      -1.23723777     -1.68857031      0.97540287
H       0.77771008      1.14034784      1.55079080
H       0.73028667     -0.57631566      1.89291493
H       2.99727133      0.11578240      0.54719822
H       0.00595246     -0.45431260     -2.07113858
H       0.12036075     -1.87038412     -1.03848724
