16
b3lypvtz=-202028.82753282
C       3.19888683      0.02528767      0.33153411
C       2.14018706      0.17433926     -0.45402780
C       0.76140346     -0.30794133     -0.12204003
N      -0.18803566      0.79903946     -0.15257197
C      -1.54329734      0.54161285     -0.07179844
N      -2.02837621     -0.62933315     -0.16271184
N      -3.42698004     -0.73421746     -0.25385609
H       3.12439805     -0.46561229      1.29511078
H       4.17888949      0.37723346      0.03749719
H       2.24391500      0.67444270     -1.41229097
H       0.75605060     -0.82725055      0.84426081
H       0.42349051     -1.03413602     -0.86448971
H       0.10893576      1.62055680      0.35090667
H      -2.16203899      1.43918752      0.02358795
H      -3.68431113     -1.63691013      0.12119815
H      -3.90311740     -0.01639881      0.29149119
