18
b3lypvtz=-181891.86267249
C      -2.92694391      0.02788137      0.00851549
C      -1.70582196     -0.35490172      0.35599067
C      -0.54759988     -0.51118633     -0.58708593
C       0.73702933      0.14284191     -0.10220643
N       0.58630609      1.56658475      0.11876514
C       2.04971732     -0.43426383     -0.58495288
C       1.60977217     -0.60736725      0.85593436
H      -3.72641157      0.10316417      0.73386806
H      -3.17255331      0.28477415     -1.01582471
H      -1.50159432     -0.59153075      1.39621622
H      -0.34573522     -1.57665801     -0.73990608
H      -0.81643355     -0.10689191     -1.56877084
H       1.41573885      1.96010194      0.54564626
H       0.44455153      2.05043016     -0.76195493
H       2.85621484      0.26001771     -0.78049329
H       2.04125186     -1.30413673     -1.22914328
H       1.29818180     -1.59140714      1.17986981
H       2.13203290     -0.04075049      1.61618035
