11
b3lypvtz=-236276.57252465
C      -1.07433516      0.78703624     -0.21194982
C      -1.60734492     -0.37428040      0.13696481
O      -0.88620509     -1.49643871      0.45278268
N       0.56982598     -1.38259825      0.39473382
C       1.03161520     -0.23831422      0.05210693
N       0.33663625      0.88505643     -0.26474353
O       2.36697757     -0.08089523     -0.01660135
H      -1.65316704      1.65979838     -0.45747396
H      -2.66922924     -0.55086064      0.20699125
H       0.82443085      1.72264116     -0.51809400
H       2.76079559     -0.93114475      0.22528317
