15
b3lypvtz=-216920.63898762
C       2.44309814      0.22769561     -0.18368796
O       1.25343970     -0.51400789     -0.42406261
C       0.24253122     -0.29415383      0.50775999
C      -0.95300543     -1.20332677      0.17588076
C      -1.95532833     -0.22022983     -0.37267838
C      -1.48017161      1.00524771     -0.19677480
O      -0.25341854      1.06716831      0.41508864
H       2.26674100      1.30154955     -0.26918503
H       2.84658922      0.00905025      0.81180608
H       3.16362131     -0.08293548     -0.93696822
H       0.63350573     -0.39905124      1.52405951
H      -1.32241634     -1.72027362      1.06522128
H      -0.63941387     -1.96008481     -0.54418845
H      -2.89904166     -0.47431444     -0.82513716
H      -1.90945955      1.96253146     -0.44875165
