21
b3lypvtz=-195909.55585862
C      -2.36603935      0.65820472      0.71983550
C      -0.87264991      0.33633016      0.80185996
C      -0.25826377     -0.22430768     -0.49404863
C      -0.86707259     -1.57873893     -0.87543170
C       1.27335512     -0.34687665     -0.40242065
C       2.03346769      0.97550281     -0.35210435
O       3.44762094      0.79474172     -0.41486285
H      -2.71561042      1.11489622      1.64724321
H      -2.97101491     -0.23264532      0.54829999
H      -2.57252646      1.36079833     -0.09111801
H      -0.69722169     -0.38187313      1.61068836
H      -0.34178046      1.24719053      1.08699268
H      -0.48546479      0.48266545     -1.30213413
H      -0.43602781     -1.95140039     -1.80624332
H      -1.94645995     -1.51866152     -1.01464200
H      -0.67247697     -2.32351552     -0.09865626
H       1.64370005     -0.89922675     -1.26992694
H       1.53342009     -0.94654564      0.47922710
H       1.76485983      1.55686515      0.53625601
H       1.78251495      1.58218881     -1.22434587
H       3.72367040      0.29420761      0.35903191
