14
b3lypvtz=-203662.98573434
C       1.30113864     -0.15364999      0.00952595
C       0.03825175     -0.15377192      0.94143258
C      -0.77282838     -1.28116426      0.29039737
O      -0.57843509     -0.97047266     -1.12299655
C       0.24231030      0.21151081     -1.06324960
C      -0.41474578      1.01488887      0.06676966
N      -0.93289464      2.13082670      0.31324010
H       1.81291283     -1.10411033     -0.13545031
H       1.99647506      0.65131687      0.23607385
H       0.08406013     -0.09779849      2.02355814
H      -0.38509997     -2.27932065      0.50112461
H      -1.83584989     -1.24197698      0.53313296
H       0.46194146      0.57835566     -2.05986223
H      -1.01723644      2.69536639     -0.53369652
