11
b3lypvtz=-212986.51443792
N      -2.39719476     -0.40756558      0.00000577
N      -1.61769254      0.57267891     -0.00003805
C      -0.27249381      0.28457001     -0.00000850
C       0.76920536      1.17092112     -0.00004524
C       1.95843301      0.39509256     -0.00001626
C       1.55459427     -0.90529318     -0.00000376
O       0.20630357     -0.99834924     -0.00000171
H      -3.34569737     -0.01257295      0.00001360
H       0.66965526      2.24218273     -0.00006642
H       2.97499483      0.74809257     -0.00004599
H       2.09109518     -1.83792095      0.00003555
