15
b3lypvtz=-191215.46806399
C       1.28755734     -0.87092318      0.08250547
N       0.23160552     -1.50529850     -0.24198555
C      -0.96707663     -0.73704725     -0.39888788
C      -1.53282128      0.01834720      0.78539993
C      -0.92731423      0.77205335     -0.36631241
C       0.43152333      1.42282920     -0.24039620
N       1.40697281      0.48118213      0.30945450
H       2.20575687     -1.43093795      0.24656998
H      -1.68648715     -1.20827254     -1.05502438
H      -2.60706838      0.04523818      0.90694647
H      -0.97271246     -0.03560474      1.70958222
H      -1.60657774      1.30376156     -1.02099562
H       0.39259389      2.30436466      0.40619040
H       0.74390372      1.76241458     -1.23587293
H       2.34758739      0.82676329      0.40021000
