10
b3lypvtz=-228073.47458082
C       0.80482227      1.69973220      0.00000360
C       0.86349266      0.37657916     -0.00000726
F       2.05211385     -0.25984991     -0.00001541
C      -0.27042476     -0.57087032     -0.00000417
N      -0.17813709     -1.83880185      0.00000186
C      -1.59198651      0.02643444      0.00000273
N      -2.62574333      0.53116867     -0.00000366
H      -0.15106483      2.19956356      0.00001122
H       1.70742757      2.29222980     -0.00000155
H       0.80377217     -2.11902875     -0.00000434
