16
b3lypvtz=-204450.52893681
O       2.48370255      0.18924573     -0.91620505
C       1.85129286     -0.16007353      0.32826450
C       0.38094944     -0.18698952      0.14466727
C      -0.44925359      1.01179126     -0.27289715
C      -1.89202296      0.49280065     -0.08798765
N      -1.74546089     -0.97771911     -0.16230462
C      -0.41796362     -1.25856733      0.17686232
H       3.40093548      0.41547905     -0.73488037
H       2.12363866      0.58070215      1.09253347
H       2.19913851     -1.13995849      0.67608850
H      -0.24630786      1.26841061     -1.31708763
H      -0.25351163      1.90723914      0.32078643
H      -2.58030751      0.85520119     -0.85043820
H      -2.27836321      0.79128205      0.89395488
H      -2.44700722     -1.50693898      0.33440887
H      -0.12945903     -2.28170489      0.37443443
