19
b3lypvtz=-192737.0492273
C       2.44894799      0.32662538      0.22786939
C       1.31163026     -0.64128183     -0.09264218
C      -0.09401186     -0.06582416      0.14907825
C      -0.37432949      1.05478741     -0.82202805
N      -0.47713928      2.26154972     -0.45363934
N      -1.09147431     -1.11593803     -0.05643525
C      -2.41144502     -0.81093477      0.48470389
H       2.39794066      1.22703541     -0.38471014
H       2.41706155      0.64123653      1.27243384
H       3.41642463     -0.14484491      0.05012060
H       1.37809124     -0.97976664     -1.13050450
H       1.41402265     -1.53686411      0.52869114
H      -0.13496660      0.36206774      1.16205861
H      -0.47803156      0.72143747     -1.86266181
H      -0.65084503      2.87380990     -1.25108708
H      -0.75086918     -1.98449536      0.33518048
H      -3.07259832     -1.66299778      0.32603721
H      -2.40665631     -0.56843827      1.55790370
H      -2.84175200      0.04283628     -0.04036877
