13
b3lypvtz=-237046.76941998
C      -2.49396735     -0.27621655     -0.07110682
N      -1.14475444     -0.78359800     -0.26239590
C      -0.17566133     -0.00341408     -0.03482570
C       1.19963978     -0.48708945     -0.22071254
N       2.15288041      0.32102974      0.01543916
O       3.40345926     -0.24353820     -0.19397346
O      -0.31310871      1.28266243      0.37911676
H      -3.20606826     -1.06471733     -0.30531032
H      -2.69625080      0.58360718     -0.71687958
H      -2.65925677      0.05211854      0.95943564
H       1.34509785     -1.50990742     -0.55087273
H       4.01160676      0.47223168      0.02025160
H       0.57638358      1.65683146      0.47880710
