15
b3lypvtz=-214520.42467519
C       1.13537183     -0.27445772     -2.07068567
N       0.77737292     -1.07070300     -1.16218670
C       1.25099830     -0.83326860      0.18961738
C       0.07480798     -0.68236611      1.15780298
N      -0.62664646      0.56969877      0.94333995
C      -1.83450239      0.53134528      0.59890533
O      -2.56493773      1.64168974      0.37283662
H       0.78663195     -0.43356832     -3.08905957
H       1.79234584      0.58662247     -1.89589580
H       1.82844625     -1.71016743      0.49478459
H       1.89897424      0.05081484      0.25994544
H       0.47438647     -0.67980093      2.17508121
H      -0.58096745     -1.55611336      1.05511905
H      -2.43289683     -0.36813355      0.44570370
H      -1.97938493      2.39840791      0.52479149
