17
b3lypvtz=-194385.57465983
C       2.63105537     -0.57541912      0.02410928
C       1.31001588     -0.78979477      0.00292016
C       0.26973046      0.22963415     -0.01073553
C       0.73596055      1.66522271     -0.01698303
C      -1.04352646     -0.09978433     -0.00690861
C      -1.64927541     -1.46726718     -0.01864966
O      -2.05431032      0.82238029      0.00951534
H       3.06708443      0.41418016      0.03242283
H       3.32288584     -1.40612456      0.03592310
H       0.98160161     -1.82088676      0.00250585
H       1.27916680      1.90861837      0.89975522
H      -0.06357262      2.40090591     -0.11722079
H       1.41862385      1.84275529     -0.85100198
H      -2.33541778     -1.55068571     -0.86433562
H      -0.91594849     -2.26216351     -0.08865076
H      -2.24150059     -1.61579121      0.88736082
H      -1.68679811      1.71116727      0.04916239
