11
b3lypvtz=-259600.09399108
N       1.12965416     -0.37511464      0.14404696
C       0.03398924      0.38556536     -0.13926082
N      -0.13506247      1.63266793      0.06846287
O       0.99141114      2.13504241      0.77670330
O      -0.99700392     -0.18927293     -0.87070293
C      -1.38013857     -1.47114762     -0.69275118
O      -0.91810358     -2.26597108      0.07575923
H       1.78384160      0.09992766      0.74749852
H       0.93845658     -1.33755304      0.37879169
H       0.75679639      3.05918799      0.89677545
H      -2.20394057     -1.67323204     -1.38532308
