15
b3lypvtz=-193583.81219309
C      -1.31247457     -0.90568463     -0.36246577
C       0.00050990     -1.15698391      0.42010693
C      -0.08095541     -0.07415055      1.51243913
C       0.00507052      1.08292186      0.50545375
C      -0.63857375      0.41070647     -0.77196363
C       0.74479574     -0.25883231     -0.68442204
O       1.34663611      0.87354576     -0.04688874
H      -2.24319622     -0.88328483      0.20626665
H      -1.42494168     -1.56463026     -1.22424625
H       0.33256671     -2.15448310      0.69051103
H       0.76613402     -0.04923864      2.19539232
H      -1.01229874     -0.12000519      2.07780237
H      -0.18738182      2.10554767      0.81457718
H      -0.95235503      1.05278711     -1.58941998
H       1.31216421     -0.71731544     -1.48874297
