13
b3lypvtz=-213761.19010681
C       2.67404795      0.06249299     -0.15314169
C       1.19692918     -0.20799448     -0.01984133
O       0.73071885     -1.31999953      0.06954290
C       0.29998249      1.01677434      0.00290764
N      -0.95651061      1.02076915      0.14950425
C      -1.74492619     -0.12579613      0.35166331
N      -2.74037338     -0.43741936     -0.36441770
H       2.87285938      0.61125851     -1.07769462
H       3.01829391      0.69594598      0.66874480
H       3.22567731     -0.87348653     -0.15379236
H       0.79643162      1.98070080     -0.11744481
H      -1.50382971     -0.71532556      1.23458472
H      -2.85187479      0.22525483     -1.13444910
