12
b3lypvtz=-202900.40800257
C       1.56386757      0.00514719      1.87010588
C       1.02697120      0.25964201      0.82567401
C       0.41594245      0.53806361     -0.43892425
C       0.48901621      1.75295987     -0.99717649
N      -0.18738630     -0.53245386     -1.14107629
C      -1.06665601     -1.27324115     -0.63164035
O      -1.59742940     -1.11940932      0.60468390
H       2.03365512     -0.21262729      2.79632487
H       0.96902998      2.56933610     -0.48024812
H       0.05943791      1.93149707     -1.97228280
H      -1.46635254     -2.10303659     -1.21164429
H      -2.24019620     -1.81597763      0.77610393
