17
b3lypvtz=-191955.17581138
C       2.53218536     -0.75705347      0.82068132
N       2.01931774      0.33135716      0.44583196
C       1.26199489      0.34817343     -0.79700226
C      -0.12088433      0.97490367     -0.59703909
C      -1.02066152      0.15952931      0.29698216
C      -2.48775768      0.12090339      0.10870110
N      -1.65647725     -1.01750522     -0.32239313
H       3.10917342     -0.78758232      1.74305962
H       2.43500751     -1.69609165      0.26046938
H       1.15713082     -0.65491281     -1.23301746
H       1.82258026      0.96580166     -1.50409753
H      -0.00025057      1.97669088     -0.17668522
H      -0.59656154      1.07927041     -1.57466654
H      -0.66713086      0.04457148      1.31629475
H      -2.93878050      0.68359115     -0.70001911
H      -3.11757192      0.00474986      0.98272661
H      -1.73131382     -1.77639693      0.34621412
