15
b3lypvtz=-193522.22231393
C      -0.82888727     -0.00084982     -1.08452220
C      -0.77338729      1.24990591     -0.19739332
C      -1.34338153      0.33374415      0.98860741
C      -0.22275347     -0.49206166      0.27176838
C       1.11120553     -1.24809362      0.13643499
O       1.70846381      0.01164358     -0.36533176
C       0.62212810      0.75007914      0.30848237
H      -0.16156028     -0.02000329     -1.94152374
H      -1.82070529     -0.38267648     -1.32516645
H      -1.11727127      2.25730607     -0.43892815
H      -2.37774491      0.01256297      0.86742908
H      -1.13536360      0.65981080      2.00676864
H       1.16705456     -2.04554397     -0.60427616
H       1.58731978     -1.54862943      1.07238935
H       0.98658314      1.15910563      1.25166155
