12
b3lypvtz=-226244.81288389
O       2.25546738     -0.06398531      0.69421426
C       1.43830322      0.22005015     -0.43942701
C      -0.01829493      0.14851610     -0.15837318
C      -1.02476519      1.04486922     -0.04654075
N      -2.20934620      0.38406910      0.25275994
C      -1.87314153     -0.85696848      0.31282637
O      -0.56067724     -1.09707618      0.07223566
H       2.09965827     -0.97588242      0.95975869
H       1.68827281     -0.44489292     -1.27427457
H       1.68148374      1.23753631     -0.74166717
H      -0.98379614      2.11455188     -0.15823728
H      -2.49336418     -1.71068747      0.52682505
