19
b3lypvtz=-171841.16351568
C       2.77686341     -0.18084676      0.76489640
C       2.09581482      0.26038026     -0.53071853
C       0.85070425     -0.56600665     -0.91042705
C      -0.28788511     -0.45204385      0.05599060
C      -1.48600546      0.07031698     -0.22763123
C      -2.57981346      0.17750949      0.72086378
C      -3.77801257      0.69656401      0.44350536
H       2.12455878     -0.05521295      1.63030419
H       3.67931651      0.40385872      0.94976432
H       3.06858590     -1.23288105      0.71809906
H       1.81245636      1.31373577     -0.45774683
H       2.81257319      0.18935213     -1.35334985
H       0.51042966     -0.26137375     -1.90295442
H       1.15101837     -1.61788985     -0.99157271
H      -0.11607755     -0.82453888      1.06242770
H      -1.67682696      0.44280738     -1.23137548
H      -2.38613995     -0.19815591      1.72175883
H      -4.55855700      0.75221274      1.18960080
H      -4.01300319      1.08221214     -0.54144795
