15
b3lypvtz=-193628.99359685
C      -2.58152619     -0.43306847     -0.00000122
C      -1.15141384     -0.00787011      0.00000098
C      -0.64642830      1.23880481     -0.00000052
C       0.82035445      1.21011608     -0.00000166
C       1.20714551     -0.07843332      0.00000107
O       2.44612988     -0.63577574      0.00000212
C       0.00723200     -0.98022052      0.00000433
H      -2.82604370     -1.04042699      0.87739534
H      -2.82603798     -1.04043427     -0.87739431
H      -3.24558412      0.43188360     -0.00000705
H      -1.23037022      2.14925370     -0.00000718
H       1.46360469      2.07834231     -0.00000113
H       3.10906347      0.06329751      0.00000258
H       0.00365239     -1.63515558      0.87737117
H       0.00365195     -1.63516599     -0.87735452
