18
b3lypvtz=-205200.49416114
C      -2.84559814     -0.40533229     -0.27760086
N      -1.61199758     -0.64751458      0.46725547
C      -0.47076424      0.10859833      0.12419682
C      -0.62398159      1.60042410      0.14592361
C       0.69523134     -0.49172238     -0.14516084
O       1.84595480      0.20837680     -0.42321939
C       3.01297126     -0.32941631      0.17811799
H      -2.74684533     -0.56412031     -1.36067973
H      -3.62001364     -1.07255975      0.10006613
H      -3.18828933      0.61594810     -0.11595083
H      -1.39750930     -1.63512237      0.49433916
H       0.35183487      2.07738851      0.10411866
H      -1.20648975      1.96216044     -0.70538722
H      -1.14134213      1.91473554      1.05517779
H       0.79084639     -1.57545795     -0.17155122
H       2.96290454     -0.27157097      1.27029742
H       3.85573947      0.26017885     -0.17749611
H       3.16181536     -1.37570176     -0.11282285
