17
b3lypvtz=-215295.11931997
C      -2.36319457     -0.18914241     -0.55132560
N      -1.35726316     -1.04597435      0.07343054
C      -0.43090785     -0.36169517      0.97409722
C       0.40261643      0.73588194      0.30377632
O       0.01954938      1.89503725      0.26974784
N       1.55619968      0.35946397     -0.32726250
C       2.22808271     -0.92638716     -0.26794118
H      -1.95823622      0.63243402     -1.15442583
H      -2.98749886      0.25374285      0.22668238
H      -3.00312056     -0.80574833     -1.18321509
H      -0.84889778     -1.55943808     -0.63521750
H       0.20253209     -1.11117459      1.45126776
H      -1.01086685      0.13241925      1.75330359
H       2.04759280      1.12951873     -0.75403003
H       3.03310774     -0.92954458     -1.00050334
H       2.66567292     -1.13273312      0.71314596
H       1.55603810     -1.74624222     -0.52278055
