14
b3lypvtz=-286240.23827404
C       2.37692724      0.57685513     -0.06667307
C       1.62149430     -0.73413203      0.15914493
C       0.27524264     -0.85063576     -0.56669110
C      -0.83594264      0.01547311     -0.01970711
F      -0.60862612      1.33694834     -0.18926508
F      -1.03132100     -0.18065753      1.30283430
F      -2.00816207     -0.25752825     -0.63486907
H       2.54237754      0.75759082     -1.13108509
H       1.83803876      1.43364963      0.33498398
H       3.35338757      0.53914921      0.41810314
H       2.24066852     -1.56499175     -0.18614331
H       1.46551756     -0.89717237      1.22745158
H      -0.09232786     -1.87624881     -0.50781081
H       0.37753356     -0.60372773     -1.62531028
