18
b3lypvtz=-181878.96675666
C      -2.42672032     -0.00000497     -0.00223470
C      -0.92401526      0.00000500      0.00475661
C       0.02434857     -1.07073736     -0.61631390
C       0.95940470      0.00000307     -0.00160710
N       2.38566755     -0.00001438     -0.10261541
C       0.00937110      0.00009470      1.24809340
C       0.02434905      1.07066248     -0.61646340
H      -2.81573377     -0.00009660     -1.02282465
H      -2.82144313      0.88262951      0.50608221
H      -2.82142670     -0.88256082      0.50623220
H       0.03049522     -1.14819858     -1.70438249
H       0.02402293     -2.05379443     -0.14092498
H       2.78352914      0.81726044      0.34573917
H       2.78351217     -0.81723209      0.34585913
H       0.00497439     -0.90356500      1.86084249
H       0.00497559      0.90384636      1.86070667
H       0.02402635      2.05378803     -0.14122176
H       0.03049043      1.14796264     -1.70454550
