13
b3lypvtz=-190434.28807115
N       2.50642387     -0.38911395      0.00013030
N       1.69988431      0.55862518      0.00007647
C       0.33276887      0.17868998     -0.00001244
C      -0.22652412     -1.05154487     -0.00000444
C      -1.71379238     -0.89539074      0.00000306
C      -1.91549748      0.59439662     -0.00000891
C      -0.71894046      1.19988560      0.00000614
H       3.44624034      0.02911213     -0.00010703
H       0.30182032     -1.99078983     -0.00000569
H      -2.17185254     -1.37557402     -0.87346145
H      -2.17186615     -1.37557603      0.87346010
H      -2.88375926      1.07056279     -0.00002551
H      -0.51969832      2.26101614      0.00003140
