14
b3lypvtz=-224583.78372268
N      -3.13882045     -0.01718402      0.50097244
C      -2.08911319      0.40366714     -0.43127709
C      -0.88380125     -0.46670449     -0.26581631
N       0.27644981      0.03128615     -0.11954658
N       1.29845488     -0.92705990      0.00618323
C       2.43758795     -0.35279065      0.11649830
O       2.66898120      0.96191269      0.11255445
H      -2.90179926      0.25275168      1.44809527
H      -4.01796196      0.42967234      0.27401476
H      -2.47394795      0.25460802     -1.44572636
H      -1.78290474      1.45282004     -0.34994382
H      -1.03157261     -1.54715708     -0.26534523
H       3.33045446     -0.95491719      0.22510668
H       1.78614411      1.36945927      0.01147427
