14
b3lypvtz=-180321.81910939
C       2.72960659     -0.49734191     -0.09523465
C       1.56549421     -0.29333302      0.09986634
C       0.13696879     -0.08216018      0.36410630
C      -0.25891197      1.30425336      0.06548157
C      -0.59299604      2.43491924     -0.14667355
N      -0.66583269     -1.03897895     -0.41331501
C      -2.04496055     -1.14793132      0.04734870
H       3.76175654     -0.66610458     -0.27647286
H      -0.01363195     -0.22404700      1.45011875
H      -0.88105634      3.43670848     -0.34678488
H      -0.20480664     -1.93906286     -0.37478009
H      -2.55002079     -1.92092494     -0.53058882
H      -2.56538369     -0.20641850     -0.12863211
H      -2.14024145     -1.39338780      1.11650930
