13
b3lypvtz=-216129.19494781
C       3.03246979     -0.85499759     -0.00001076
C       1.98948433     -0.25963412     -0.00003105
C       0.71831891      0.45454962     -0.00004917
O       0.66111947      1.65880841     -0.00007528
C      -0.49496992     -0.45939892     -0.00003002
O      -1.67260530      0.28483159     -0.00002143
C      -2.83505579     -0.52111546      0.00000854
H       3.96400314     -1.36599348     -0.00000414
H      -0.41839775     -1.11698842     -0.88129062
H      -0.41837907     -1.11697947      0.88123512
H      -2.88261028     -1.15946765      0.89074309
H      -2.88264031     -1.15949153     -0.89070724
H      -3.68883421      0.15279501      0.00001396
