19
b3lypvtz=-216037.18135113
C      -1.37107133     -2.03823861     -0.24683961
N      -1.04918544     -0.80128575      0.45209216
C       0.05074782     -0.03468750     -0.12295771
C      -0.09651818      1.43475161      0.27657124
N      -1.37168794      1.97559592     -0.21666054
C       1.38998067     -0.59363961      0.35141954
O       2.43218868      0.05101609     -0.38243121
H      -2.27262131     -2.47233556      0.18650740
H      -1.53912983     -1.90508839     -1.32766605
H      -0.57183476     -2.77180548     -0.12765067
H      -1.86063107     -0.19359766      0.44740760
H       0.05140119     -0.08940800     -1.22665537
H       0.78371139      1.98249552     -0.07107049
H      -0.11457524      1.48957196      1.36809695
H      -1.57174467      2.86879236      0.21547628
H      -1.32255382      2.13988657     -1.21587284
H       1.41623025     -1.67529724      0.18659612
H       1.49002177     -0.41618195      1.42849994
H       3.27768180     -0.29401526     -0.08456674
