15
b3lypvtz=-212087.718374
N       2.99309789      0.39766952     -0.23540282
N       2.36858929     -0.66918602     -0.04802545
N       1.04248188     -0.53121602      0.13415703
C       0.32867089      0.66349232      0.14056790
C      -0.99880530      0.76970343      0.24879780
C      -1.99333350     -0.34634806      0.35773639
N      -3.17041277     -0.05477328     -0.46911372
H       3.96925990      0.11997239     -0.34566398
H       0.58428521     -1.41287842      0.27531857
H       0.96423435      1.53044674      0.05351127
H      -1.42121835      1.76633954      0.25872685
H      -2.34103984     -0.42567335      1.39366482
H      -1.52308531     -1.31207170      0.11783454
H      -3.87370580     -0.77487478     -0.35540604
H      -2.91468153     -0.03827931     -1.44962516
