13
b3lypvtz=-213698.0849617
C      -0.01390244     -1.08170043     -0.01674813
C      -1.24301115     -0.36849148      0.57549680
C      -0.61709014      0.97843883      0.36919442
C       0.59880001      0.31038649     -0.17081731
N       1.73499747      0.78942703     -0.43809501
O       2.63570765     -0.23007783     -0.82408187
N      -1.75745461      0.51030225     -0.48359838
H       0.54720451     -1.68220104      0.69936411
H      -0.18919814     -1.65097406     -0.92823598
H      -1.86519350     -0.70503158      1.39065436
H      -0.68614920      1.89045736      0.94145506
H       3.44587554      0.26312250     -0.98580834
H      -2.59058600      0.97634196     -0.12877974
