13
b3lypvtz=-211362.74274183
C       2.80699707      0.45057764     -0.23011494
N       2.16516329     -0.38723709      0.46577008
C       0.79262742     -0.23489499      0.64817520
N      -0.01499013     -0.09707796     -0.31955716
C      -1.39921232      0.00932404     -0.03684644
N      -1.98329415      1.00921621      0.49677705
N      -2.10106203     -1.10158867     -0.44303849
H       3.86570933      0.28682652     -0.41220876
H       2.34315500      1.34028499     -0.66295681
H       0.47529267     -0.31661122      1.69028904
H      -1.31033760      1.71887217      0.76839227
H      -3.09621379     -0.96662867     -0.52011485
H      -1.67719375     -1.65444696     -1.16870720
