15
b3lypvtz=-193554.6087116629
C      -1.67004984      0.60700991     -0.78638266
C      -1.18081706     -0.74048148     -0.22613571
C      -0.72272186     -0.13412670      1.09156418
C      -0.54878791      1.06544222      0.16302873
C       0.23822035     -0.23250971      0.01999350
C       1.64261926     -0.68738413     -0.16439681
O       2.55513842     -0.06401585      0.73824368
H      -1.49987290      0.77649119     -1.85256027
H      -2.68428228      0.89993574     -0.50456762
H      -1.48481366     -1.76234739     -0.40597469
H      -0.75438569     -0.34740657      2.14353398
H      -0.17020537      2.04242541      0.43070554
H       1.96502125     -0.53508224     -1.20117078
H       1.70653069     -1.75783625      0.04054819
H       2.60840659      0.86988583      0.51357073
