14
b3lypvtz=-229601.05524298
C      -1.82109832     -0.91005985      0.41538952
C      -0.73838318      0.07299935      0.10414534
C       0.56414471     -0.27701278     -0.00348394
N       1.54440957      0.60681080     -0.30880619
C       2.77866116      0.27926879     -0.36384134
F       0.91775248     -1.58437426      0.23261202
N      -1.12540656      1.39729510      0.00027853
H      -2.30893675     -0.64883645      1.35743073
H      -1.43187629     -1.92038464      0.48924329
H      -2.58898439     -0.89105234     -0.36385858
H       3.50404663      1.04150569     -0.62569024
H       3.13927863     -0.72790178     -0.16308602
H      -0.40403299      2.00955634     -0.35231888
H      -2.02957467      1.55218605     -0.41801425
