17
b3lypvtz=-194380.22667897
C       2.20023640      0.26791717      0.08545106
C       0.90944780     -0.49732494     -0.14031384
C      -0.14674948      0.08214677     -1.11903357
C      -1.25651501     -0.34415083     -0.13648124
C      -2.37679985      0.60184729      0.16614360
O      -2.51114374      1.69718822     -0.31952703
C      -0.16653791     -0.48763745      0.98024093
H       1.99693309      1.30635452      0.35665294
H       2.79258165     -0.17827966      0.88781231
H       2.81647842      0.27470424     -0.81650325
H       1.13488785     -1.53099732     -0.41322237
H      -0.18412563     -0.33185106     -2.12546106
H      -0.09413682      1.16911454     -1.18775734
H      -1.68171292     -1.32365523     -0.37084840
H      -3.10082792      0.23467534      0.92622802
H      -0.10079461      0.41455209      1.59096103
H      -0.23112131     -1.35460371      1.63565822
