19
b3lypvtz=-195135.16879388
C       2.29151428     -0.81008448      0.25197069
C       0.94134386     -0.76501628     -0.46856774
C       0.05666967      0.40086711     -0.06049416
C       0.54581850      1.77389379     -0.47480119
C      -0.69550304      0.29328942      1.25387668
C      -1.44303418      0.19456527     -0.03628056
O      -2.01298614     -1.05671336     -0.32466797
H       2.87064250     -1.67911327     -0.06472920
H       2.89364311      0.07649590      0.04695859
H       2.15556898     -0.87599247      1.33314690
H       1.11271044     -0.71399977     -1.55010441
H       0.40359638     -1.69645732     -0.28703033
H       1.48425816      2.03364499      0.01996100
H      -0.18006691      2.54733029     -0.21768224
H       0.71470709      1.82070577     -1.55432825
H      -0.59479231     -0.63090395      1.80745977
H      -0.82171241      1.17653625      1.86581651
H      -2.06000619      1.04073567     -0.32743781
H      -2.04900079     -1.16278157     -1.28101430
