21
b3lypvtz=-172604.39210028
C       1.47890768      1.42537967     -0.00000529
C       0.93018925      0.21121360     -0.00000160
C       1.82536803     -1.00551912     -0.00000129
C      -0.58593949     -0.02661772      0.00000091
C      -0.98811443     -0.82866599      1.25727452
C      -1.38066928      1.28756217     -0.00001209
C      -0.98811443     -0.82869306     -1.25725522
H       2.55503887      1.54619136     -0.00000565
H       0.89823010      2.33555359     -0.00000757
H       1.65691792     -1.63482889      0.87643446
H       1.65693942     -1.63481147     -0.87645389
H       2.87371017     -0.71048685      0.00001455
H      -0.69935394     -0.29935614      2.16710615
H      -2.07027591     -0.97213523      1.27962768
H      -0.52676156     -1.81588709      1.27897167
H      -1.16462452      1.88968893     -0.88360129
H      -1.16463313      1.88970060      0.88357130
H      -2.45025349      1.07081996     -0.00001578
H      -0.69934496     -0.29940804     -2.16709851
H      -0.52676934     -1.81591846     -1.27892547
H      -2.07027695     -0.97215385     -1.27961059
