12
b3lypvtz=-223818.03324653
C      -2.49886509      0.29194346      0.00001239
N      -1.44421801     -0.70443004      0.00003056
C      -0.25631062     -0.29941983     -0.00001359
N       0.30356327      0.97937993     -0.00002828
H      -0.21516951      1.83766018     -0.00001085
C       1.66129473      0.83155292     -0.00000778
N       2.03266361     -0.39488323     -0.00010032
O       0.82456691     -1.14736928      0.00004162
H      -3.46487206     -0.20925539      0.00003117
H      -2.46746439      0.93816384      0.88799927
H      -2.46747628      0.93813019     -0.88799977
H       2.35912744      1.65323825      0.00010057
