16
b3lypvtz=-209459.71600783
C      -3.25698388     -0.32071406     -0.00000116
C      -1.87643262      0.25546177      0.00000004
C      -0.75211608     -0.46624058     -0.00000018
C       0.60803609      0.06326774      0.00000010
C       0.85071868      1.54596403     -0.00000088
C       1.61420103     -0.81246290     -0.00000044
F       2.90972446     -0.43312318      0.00000514
H      -3.23786482     -1.41112882     -0.00000276
H      -3.82363610      0.00843256     -0.87610254
H      -3.82363687      0.00842993      0.87610072
H      -1.81263434      1.33876623      0.00000001
H      -0.83647164     -1.55007017     -0.00000165
H       0.40031172      2.01192937      0.87921599
H       0.40030705      2.01192948     -0.87921526
H       1.91393043      1.77156119     -0.00000360
H       1.50682790     -1.88839058      0.00000846
