19
b3lypvtz=-192743.08224771
C      -3.16959899      0.32904949     -0.42520219
C      -2.05213742     -0.30157216      0.39365132
N      -0.74221490      0.02592781     -0.16438203
C       0.37305571     -0.60052143      0.54448361
C       1.70262092     -0.11194164      0.00607550
C       1.97846625      1.36328093      0.14649359
N       2.48202885     -0.96741714     -0.51865663
H      -4.14331799      0.10794050      0.01396898
H      -3.17400631     -0.05693377     -1.44749945
H      -3.04744816      1.41151629     -0.47447565
H      -2.21527379     -1.38923328      0.46617877
H      -2.08222047      0.08350862      1.41680877
H      -0.71374396     -0.26170382     -1.13711706
H       0.36836782     -1.69625086      0.49401722
H       0.29362659     -0.31601993      1.59945910
H       1.14350122      1.94060803     -0.25124114
H       2.07010382      1.62837596      1.20359170
H       2.89790331      1.64770733     -0.36441871
H       3.34389350     -0.52367293     -0.84128270
