16
b3lypvtz=-204444.26787946
N       3.14939017      0.05622907     -0.13822023
C       1.98847560      0.11949019      0.34073268
O       0.86003296     -0.28592448     -0.29395099
C      -0.39304544     -0.05640875      0.34778948
C      -1.27948439      1.08529064     -0.19351988
C      -2.49529482      0.13277556     -0.03662903
C      -1.50175508     -1.06031851     -0.00432027
H       3.13632792     -0.32900518     -1.08331685
H       1.82430370      0.51241766      1.34498552
H      -0.24110672      0.02237645      1.42698948
H      -1.04947307      1.27186530     -1.24234627
H      -1.28260528      2.03024612      0.34790945
H      -3.23820686      0.13937040     -0.83101459
H      -3.00318383      0.26969012      0.91744948
H      -1.33305680     -1.46593897     -1.00159218
H      -1.68628707     -1.87865762      0.68969020
