15
b3lypvtz=-212108.84039937
C      -1.65398030      1.44850600     -0.05402335
C      -1.51467944      0.11962679     -0.00511065
N      -2.57173836     -0.80684214     -0.10027559
N      -0.30365962     -0.57091258      0.12141203
N       0.86014398      0.16775035      0.18449850
C       1.94726632     -0.43258422     -0.08115124
N       3.16198544      0.23058055     -0.11027792
H      -0.79237186      2.09204576     -0.10157652
H      -2.63842845      1.89165998     -0.03205424
H      -3.46876808     -0.35226277     -0.18044621
H      -2.57929129     -1.46692491      0.66761128
H      -0.27056087     -1.40460519     -0.45794371
H       1.99904696     -1.48955324     -0.35701254
H       3.13431147      1.14770539      0.31173277
H       3.95690712     -0.31461376      0.18442438
