16
b3lypvtz=-181110.1985247
C      -3.55189382     -0.69264533      0.05996530
C      -2.54073214     -0.04827985      0.05686972
C      -1.30741903      0.73138618      0.07905431
N      -0.13529841     -0.09605005     -0.20563896
C       1.12408319      0.63240839     -0.06587545
C       2.28630377     -0.24535845     -0.41861427
C       3.32505373     -0.47735444      0.37316466
H      -4.44768073     -1.26161118      0.05422049
H      -1.36507620      1.51528721     -0.68289621
H      -1.24020405      1.25161105      1.04969351
H      -0.13513056     -0.90547895      0.40388205
H       1.08724234      1.47833674     -0.76237979
H       1.27001539      1.05955609      0.93946084
H       2.23260204     -0.71294748     -1.39665904
H       4.14332654     -1.11408232      0.06372528
H       3.39854793     -0.03249162      1.35893155
