16
b3lypvtz=-204438.7565014
C      -1.71297998      1.44224291     -0.73467063
C      -0.51234389      0.92065762     -0.44668722
N      -0.27820379     -0.31351982      0.13390714
C      -1.42560107     -1.13553575      0.46929491
C       0.99544421     -0.80659112      0.41281957
C       2.21115130     -0.28384839      0.21857246
O       2.46278054      0.95130023     -0.34419821
H      -1.76220878      2.41964249     -1.18933984
H      -2.64910696      0.94169907     -0.53893147
H       0.38577933      1.47412855     -0.66822166
H      -2.01543127     -1.36594633     -0.42279690
H      -2.07882032     -0.62288485      1.18155280
H      -1.09198069     -2.06877263      0.91464268
H       0.98672156     -1.78610217      0.86655256
H       3.07359021     -0.86105991      0.52038320
H       3.41110960      1.09479007     -0.37287941
