15
b3lypvtz=-191195.50847483
C       2.44838725      0.45967792     -0.40955987
C       1.18871894      0.14956058     -0.69475663
C       0.16422329     -0.23875882      0.32006740
C      -1.17221814      0.52582727      0.22583499
N      -1.58517297      1.69588781      0.40872879
C      -1.87062161     -0.74516022     -0.21375184
N      -0.60697497     -1.49345855      0.04843988
H       3.15196856      0.74366891     -1.18087347
H       2.81894113      0.43906503      0.60826891
H       0.84895690      0.17489858     -1.72698658
H       0.60633155     -0.23401233      1.32046803
H      -0.82777046      2.31748876      0.69819781
H      -2.19369359     -0.71352609     -1.25911645
H      -2.71294228     -1.06640815      0.40191306
H      -0.25813357     -2.01475070     -0.74568356
