17
b3lypvtz=-215263.66384509
C       2.22580599     -0.89220643      0.47250661
C       1.22550285     -0.29683669     -0.41667628
O       2.45759879      0.38162617     -0.14019364
C      -0.02811268      0.37435106      0.10010156
C      -1.23449922     -0.56124573      0.02274572
N      -2.36787857      0.03534772      0.72444090
N      -0.34442383      1.62768247     -0.59844055
H       2.06551270     -0.86455913      1.54591492
H       2.85785118     -1.69932818      0.11630919
H       1.16230446     -0.68034316     -1.43481211
H       0.12953718      0.62989183      1.15072654
H      -1.43220186     -0.78341167     -1.03960566
H      -0.98133951     -1.51089612      0.50106415
H      -3.21402485     -0.49603931      0.56257172
H      -2.51703441      0.97078706      0.36259974
H      -0.40623529      1.46625290     -1.59924676
H       0.40163708      2.29892722     -0.45763972
