13
b3lypvtz=-237070.05373632
C      -1.92206406     -0.85955850     -0.00515621
C      -0.89511020     -0.00176526      0.04154727
O      -1.02942646      1.34054075      0.19576186
N       0.43149702     -0.40512073     -0.06469587
C       1.61748086      0.34730772     -0.03708987
N       1.79275986      1.58522476      0.09160612
O       2.72649942     -0.43932798     -0.17603005
H      -1.76310528     -1.91911010     -0.12941141
H      -2.93849171     -0.50746573      0.08109449
H      -1.96729867      1.54757486      0.26202877
H       0.52161055     -1.39977988     -0.17850806
H       0.91820057      2.08169336      0.18757333
H       2.50744809     -1.37031327     -0.26882036
