11
b3lypvtz=-236326.37285622
N      -2.83511485     -0.56405957      0.00003448
C      -1.80445389      0.16812227      0.00000453
N      -0.47467184     -0.25963668     -0.00003522
C       0.60599130      0.57871984     -0.00004473
O       0.57916231      1.79045805     -0.00001207
C       1.94227993     -0.17020901     -0.00001499
O       2.02029021     -1.37010945     -0.00005820
H      -2.61013190     -1.56040298      0.00002582
H      -1.89360142      1.24977172      0.00000741
H      -0.26442939     -1.25014317     -0.00004566
H       2.81782654      0.50040898      0.00005763
