12
b3lypvtz=-257139.94243981
N      -0.27992633      1.29432197      0.12085249
C      -0.44210921     -0.08284669      0.02400232
C       0.71567047     -0.96564206      0.03022514
C       2.00721260     -0.65772918      0.00114167
F       2.47200197      0.61428911     -0.04959245
C      -1.65586581     -0.65501792     -0.01690454
F      -2.76930694      0.12124615     -0.03906439
H       0.57966152      1.65966161     -0.25128278
H      -1.09267094      1.82853719     -0.14160032
H       0.50308820     -2.02624403      0.05529319
H       2.81204882     -1.37741010      0.00911966
H      -1.86088534     -1.71229505     -0.02293799
