14
b3lypvtz=-203694.54007334
C      -1.78258070      0.13749679     -1.07565091
C      -1.02367579     -0.10606921     -0.00670826
C       0.27808323     -0.87317365     -0.04563096
C       1.49591585     -0.03491482      0.32829598
O       1.67138679      0.95791725     -0.67514352
C      -1.43113322      0.37810362      1.28065561
N      -1.71747983      0.74717813      2.33510770
H      -1.48291686     -0.21399612     -2.05336892
H      -2.70785230      0.69089645     -1.00210502
H       0.41960664     -1.27397433     -1.04996191
H       0.22158548     -1.71904284      0.64487574
H       1.34915733      0.41882912      1.31440660
H       2.37052231     -0.69288785      0.38747938
H       2.33938107      1.58363744     -0.38225149
