17
b3lypvtz=-191955.57937528
C       2.08370854     -1.26637046     -0.20799721
C       1.38267489      0.00001640      0.31136107
C       2.08381793      1.26635576     -0.20796363
C      -0.06094283      0.00007270     -0.08740642
C      -1.08750494      0.00009765      0.76306280
N      -2.47440586      0.00026810      0.42221168
N      -2.72973221     -0.00033798     -0.79549784
H       1.61410313     -2.16836989      0.18551998
H       3.13428910     -1.27148031      0.08817255
H       2.04317778     -1.31437617     -1.29861400
H       1.43999485     -0.00000188      1.40382753
H       2.04328676      1.31439270     -1.29857916
H       3.13440039      1.27137239      0.08820130
H       1.61429128      2.16838557      0.18557800
H      -0.27915203      0.00010850     -1.15165283
H      -0.93554467      0.00010032      1.83509786
H      -3.75457709     -0.00006641     -0.87685869
