16
b3lypvtz=-181158.59104504
C      -1.17514528      1.75433669     -0.09689641
C      -0.24926971      0.80023663      0.01441799
C       1.24909948      0.99282505      0.14734381
C       1.86051699     -0.41055046     -0.09261526
C       0.66995281     -1.32597986     -0.02354558
C      -0.49289214     -0.64884114      0.01690917
N      -1.78639001     -1.15595160     -0.02701029
H      -0.91022771      2.80336377     -0.09946740
H      -2.22478545      1.51953172     -0.21625390
H       1.48854498      1.33957785      1.15513077
H       1.62548890      1.74458195     -0.54608329
H       2.35466640     -0.46472085     -1.06910712
H       2.62393105     -0.65933287      0.64916667
H       0.75369924     -2.40472707     -0.04606550
H      -1.85670533     -2.14231775      0.16983200
H      -2.45540622     -0.62653006      0.51233933
