18
b3lypvtz=-181885.7151316
C       3.07599312     -0.43529084     -0.23007091
C       1.83541884     -0.43997550      0.23757909
C       0.90519948      0.73628249      0.20783328
N      -0.36072244      0.39835692     -0.44481942
C      -1.50196813      1.24448735     -0.10553189
C      -1.41546018     -0.14976267      0.40275424
C      -2.25130057     -1.27289037     -0.15213780
H       3.71118381     -1.30905732     -0.16562572
H       3.50355303      0.44569478     -0.69493727
H       1.43823041     -1.34388189      0.69068197
H       0.73505589      1.09168809      1.23938967
H       1.36378564      1.55949257     -0.34436251
H      -2.16847790      1.48459644     -0.92556157
H      -1.34307264      2.05096297      0.60441933
H      -1.17370210     -0.23571961      1.46078625
H      -1.74552835     -2.23354471     -0.03295572
H      -3.21316401     -1.33191438      0.36224385
H      -2.43650290     -1.12023532     -1.21529187
