15
b3lypvtz=-193587.54028335
C       3.24154769      0.51365459     -0.42099229
C       2.07260109      0.26361358     -0.51494446
C       0.65575530     -0.05674158     -0.63115348
C      -0.09026525     -0.00053942      0.71376520
O       0.01382677      1.28542506      1.32698515
C      -1.53850891     -0.40946626      0.63779202
C      -2.21056863     -0.82522840     -0.42870510
H       4.27414102      0.74120808     -0.33256500
H       0.18040868      0.63215187     -1.33659906
H       0.55081951     -1.05918709     -1.05502180
H       0.42310722     -0.66676646      1.41201839
H      -0.50292921      1.91028827      0.80593089
H      -2.05579787     -0.31111026      1.58729263
H      -1.75306228     -0.94214910     -1.40251864
H      -3.26117512     -1.07525287     -0.36128445
