10
b3lypvtz=-248785.01224093
N       2.55222578      0.48492721     -0.00006902
C       1.94300446     -0.60160313     -0.00008317
O       0.55634440     -0.86070125     -0.00012894
C      -0.38061924      0.12185648     -0.00012378
O      -0.18764345      1.30217332      0.00001397
C      -1.77592667     -0.53353327      0.00005473
O      -2.77170054      0.12669610      0.00031245
H       1.93617262      1.29393589     -0.00014374
H       2.44206532     -1.56448590      0.00004193
H      -1.77342968     -1.63744744     -0.00016443
