13
b3lypvtz=-190454.88360979
C       0.40505784     -1.09968834     -0.40363127
C      -1.08802923     -0.73781581     -0.16300896
C      -0.64833575      0.68069857      0.18781469
N      -1.11833477      1.69891821      0.74460609
C       0.77811746      0.42064887     -0.33389532
C       1.89970376      0.81856476      0.49315855
N       2.79217435      1.10264397      1.16195537
H       0.83961862     -1.66118433      0.41918170
H       0.64435217     -1.59055601     -1.34269829
H      -1.69534535     -0.77004696     -1.06929810
H      -1.60868646     -1.28116459      0.62462051
H      -2.09499368      1.56750064      1.01231353
H       0.89470105      0.85148101     -1.33111852
