21
b3lypvtz=-172617.2449815
C      -1.50573459      1.62076835     -0.09994241
C      -0.37127836      0.69664213      0.32913784
C       1.03241789      1.23494474      0.00173376
C       1.96835947     -0.00000422     -0.00000601
C       1.03241253     -1.23494819     -0.00172674
C      -0.37128022     -0.69664157     -0.32913657
C      -1.50574167     -1.62076288      0.09994030
H      -2.48329591      1.21377892      0.16481472
H      -1.49044705      1.77695662     -1.18197404
H      -1.42017677      2.59993455      0.37587296
H      -0.43818592      0.54334166      1.41424230
H       1.01417692      1.69707684     -0.98938833
H       1.35395515      2.00751583      0.70167439
H       2.62093199      0.00714755     -0.87351186
H       2.62095285     -0.00715938      0.87348416
H       1.35394536     -2.00753148     -0.70165598
H       1.01416936     -1.69706504      0.98940254
H      -0.43818285     -0.54334165     -1.41424146
H      -1.42018625     -2.59992967     -0.37587427
H      -1.49045857     -1.77695059      1.18197208
H      -2.48330038     -1.21376952     -0.16482039
