16
b3lypvtz=-227778.17375544
C       0.47476623      1.55463059      0.94214531
C       0.11445422      0.53766430     -0.13798195
C       1.11634447     -0.65591206     -0.19295306
N       2.49820268     -0.33513083     -0.51231240
C      -1.27939318     -0.03002702      0.09703257
O      -1.77746841     -0.17933070      1.17698836
O      -1.95073394     -0.44002944     -1.01606940
H      -0.22363491      2.39135280      0.94532381
H       1.47501158      1.95537379      0.77604234
H       0.43778658      1.09070803      1.92726934
H       0.13429431      1.02949140     -1.11814112
H       1.09700018     -1.15901108      0.77585873
H       0.76246771     -1.38432450     -0.92655842
H       2.57784686      0.14591175     -1.40003293
H       2.92143444      0.25187397      0.19426028
H      -1.44580283     -0.22892499     -1.80963446
