15
b3lypvtz=-191215.49437546
C       3.19308980     -0.33324921      0.04712854
C       1.82372611      0.25266684      0.14442447
C       0.69311438     -0.36856853     -0.19389425
C      -0.65931585      0.21583072     -0.09112645
N      -0.97006353      1.45249232     -0.10441968
C      -1.78963389     -0.77378574      0.04056410
N      -3.01269054     -0.47494142      0.14712287
H       3.82688518      0.27403600     -0.60545914
H       3.17327414     -1.35018169     -0.34353123
H       3.68137010     -0.34695104      1.02539993
H       1.76648105      1.26398288      0.54012513
H       0.74071192     -1.39795994     -0.53743821
H      -0.15343494      2.04859329     -0.23162576
H      -1.50814513     -1.82816579      0.04709677
H      -3.10561278      0.54695731      0.12450590
