15
b3lypvtz=-212113.71166128
C       3.03220808     -0.26271838      0.04946411
N       1.87555357      0.27439163      0.02857878
N       0.79151824     -0.49973312     -0.09460721
C      -0.50010812      0.02383590     -0.02794738
N      -0.56193437      1.39511838     -0.08161531
N      -1.46093801     -0.81280177      0.01936152
C      -2.81175870     -0.29279597      0.03305879
H       3.88888327      0.38899064      0.14173423
H       3.19190525     -1.33942096     -0.02444824
H       0.85024950     -1.51168813     -0.08525814
H       0.30244800      1.87946529      0.10252013
H      -1.39683934      1.81962105      0.28142063
H      -3.51556086     -1.12390197      0.02428893
H      -3.03289400      0.33850160     -0.83812887
H      -3.03033651      0.30120281      0.93317503
