14
b3lypvtz=-224572.10274677
C      -2.09449006      0.52947568      0.15377962
C      -0.96973931     -0.47725488      0.08694125
O       0.27402557      0.25588884     -0.02661402
C       1.39834533     -0.45889515     -0.10075869
N       1.44822516     -1.71944621     -0.07834888
N       2.61338418      0.34251854     -0.21395087
N       2.51599827      1.57264152     -0.23137674
H      -2.12495092      1.14502935     -0.74545833
H      -1.98556883      1.18368236      1.01905896
H      -3.04699752      0.00501635      0.24056433
H      -1.05499738     -1.13850462     -0.77557244
H      -0.91722420     -1.10066350      0.97968084
H       2.42041870     -2.01213370     -0.14937122
H       1.52357099      1.87264543     -0.15857382
