14
b3lypvtz=-203652.32422287838
C      -2.65978823     -0.56708723     -0.46994070
C      -1.33429835     -0.53940544     -0.50019345
C      -0.48090807     -0.68683853      0.71581570
O       0.33335900      0.51020833      0.95290253
C       1.44529248      0.56236898      0.25458592
N       2.10957242     -0.07263697     -0.59344751
C       2.63066398      1.30802269     -0.02180860
H      -3.24929886     -0.48437206     -1.37316462
H      -3.20470187     -0.68243543      0.45981198
H      -0.80668812     -0.42548487     -1.44069225
H       0.19883362     -1.53626131      0.62706488
H      -1.08138366     -0.79123046      1.61598749
H       3.48621266      1.25814802      0.64334300
H       2.61313300      2.14700428     -0.70918311
