14
b3lypvtz=-224564.06635217
C       2.95460757     -0.17223867      0.00007917
C       1.55982873     -0.71508050      0.00005271
C       0.45872731      0.03999152     -0.00003366
O       0.46610275      1.38920173     -0.00009713
N      -0.83365247     -0.52134234     -0.00006784
N      -1.90084948      0.27303638     -0.00014268
N      -3.05466733     -0.19713582     -0.00025463
H       3.51372977     -0.50654856      0.87862641
H       2.95284297      0.91613269     -0.00057553
H       3.51413864     -0.50761782     -0.87779198
H       1.42288726     -1.78953578      0.00014945
H      -0.45660510      1.69153205     -0.00013410
H      -0.94730813     -1.53092524     -0.00020316
H      -3.03950149     -1.23641565     -0.00027804
