14
b3lypvtz=-201288.46878827
C      -3.00847839     -0.20360717     -0.02306041
C      -1.69310599     -0.42381563     -0.08312995
N      -0.78273961      0.61980978      0.00239423
C       0.48487669      0.42284013      0.07056341
N       1.33588756      1.50247566     -0.04304254
C       1.16507456     -0.89996206      0.22550774
N       2.34006500     -1.19428876     -0.15273889
H      -3.39539714      0.79999445      0.08966698
H      -3.71078477     -1.02204438     -0.08574578
H      -1.33495040     -1.44125984     -0.22949277
H       2.18320222      1.48342155      0.50249722
H       0.86302488      2.39342975     -0.05401703
H       0.58738365     -1.67278458      0.72721682
H       2.77591174     -0.40522990     -0.63580001
