14
b3lypvtz=-224573.62140755
C      -1.31177174      1.39573810      0.37583478
C      -1.46769003     -0.04852947     -0.02458713
O      -2.45829406     -0.47638583     -0.56700459
C      -0.33264753     -1.02896528      0.30640013
N       0.95670238     -0.43212347      0.57068215
N       1.62940579      0.08397549     -0.46123332
N       2.83617267      0.29768767     -0.22226875
H      -0.52286127      1.85916354     -0.21952503
H      -2.25156377      1.91708901      0.21466506
H      -1.00121082      1.47847977      1.41932757
H      -0.63808711     -1.55522371      1.21349320
H      -0.29744898     -1.76773260     -0.49717980
H       1.52486550     -0.75262865      1.34913050
H       3.21917697      0.71741845     -1.07097577
