15
b3lypvtz=-240239.78510032
C      -0.98118404      1.18996627     -0.18492551
C      -0.55790155     -0.23968928      0.12938079
O      -0.52126201     -0.47958165      1.52790491
O      -1.52724989     -1.06553968     -0.48914416
C       0.84944459     -0.59569571     -0.36988552
C       1.97577266      0.09326682      0.36695956
O       3.01931675     -0.44041087      0.63797674
H      -0.30433386      1.90672327      0.27616549
H      -1.00073182      1.35589073     -1.26119792
H      -1.98711231      1.36099039      0.20087045
H      -1.38606947     -0.25852922      1.89272103
H      -1.31255402     -1.98197523     -0.27823407
H       0.91890888     -0.32827773     -1.42827414
H       1.01075406     -1.67164352     -0.28768128
H       1.80420204      1.15470544      0.63546364
