13
b3lypvtz=-213776.21006063
C      -0.55762992     -0.41875899     -0.41538167
C       0.26123039      0.59715582      0.36624484
C       1.57556050      0.82292246      0.17745608
C       2.32568610      0.09221865     -0.77161583
N       2.94010070     -0.50699073     -1.54632077
O      -0.43913412      1.29738213      1.26184515
N      -1.79821973     -0.70146777      0.31668475
H      -0.81556161      0.02521172     -1.37893292
H       0.04681216     -1.30141875     -0.62671722
H       2.08115297      1.58591233      0.75236949
H      -1.32810831      0.87447202      1.26826489
H      -2.57988463     -0.84465680     -0.30622580
H      -1.71200451     -1.52198210      0.90232902
