15
b3lypvtz=-216915.68128627
C      -2.33498531     -0.00000009     -0.26554623
C      -1.05931497     -0.00000004      0.09625786
C      -0.25464226      1.25291809      0.32380089
O       1.01130812      1.16931139     -0.33591258
C       1.69971094      0.00000012      0.02676271
O       1.01130825     -1.16931115     -0.33591280
C      -0.25464213     -1.25291813      0.32380064
H      -2.88258258      0.92257896     -0.41524832
H      -2.88258246     -0.92257917     -0.41524849
H      -0.08789114      1.39965930      1.40220892
H      -0.75837098      2.13368680     -0.06910647
H       2.64016010      0.00000022     -0.51833423
H       1.88324214      0.00000003      1.11535237
H      -0.75837074     -2.13368681     -0.06910690
H      -0.08789099     -1.39965953      1.40220864
