19
b3lypvtz=-171820.28363994
C       2.27523813      0.10858583      0.03031309
C       0.83297492     -0.01969538     -0.43223869
C      -0.21067041      0.78161195      0.42655517
C      -1.01108895      1.90481358     -0.21551262
C      -0.91238620     -0.53968213      0.76960542
C      -1.30437718     -1.30152424     -0.46345349
C       0.12826858     -1.32285702     -0.02906462
H       2.92869147     -0.57383624     -0.51840303
H       2.64964265      1.12324071     -0.12357151
H       2.36882178     -0.12533071      1.09354058
H       0.77115024      0.18989974     -1.50487554
H       0.29702963      1.16374585      1.31508259
H      -1.74750894      2.30940565      0.48284327
H      -1.54812098      1.56362553     -1.10222300
H      -0.35881250      2.72675787     -0.52047879
H      -1.34341014     -0.78065454      1.73195524
H      -1.86308423     -2.21009485     -0.27992915
H      -1.59159840     -0.78553959     -1.37313484
H       0.63340752     -2.24109597      0.23928090
