16
b3lypvtz=-227749.67738306
C       1.50293911      1.39286682      0.38227061
C       1.23224635      0.06015009     -0.28479826
O       2.45992582     -0.58955841     -0.44444847
O       0.41122255     -0.78421652      0.52436504
C      -0.95254702     -0.71016391      0.40244679
C      -1.68745978      0.22106567     -0.21059717
N      -3.09899137      0.27012544     -0.17367929
H       0.57423948      1.92482000      0.58150935
H       2.01910484      1.21773967      1.32566717
H       2.13511440      2.00834600     -0.25750546
H       0.72674836      0.18507205     -1.25221578
H       2.28947941     -1.46383423     -0.81175273
H      -1.41871507     -1.53422674      0.92926992
H      -1.23708625      1.06440226     -0.71421024
H      -3.50766754      0.45107877     -1.08077054
H      -3.51323828     -0.56754096      0.21294306
