16
b3lypvtz=-202038.811447
C       2.97629053     -0.37911419      0.09232531
C       1.71188375     -0.78034892     -0.04255855
C       0.52459838      0.06687188     -0.04688227
N       0.64382059      1.45186689      0.03621123
N      -0.61865111     -0.53068010     -0.07901735
N      -1.72655593      0.30692325     -0.06476872
C      -2.96936075     -0.44097633      0.06818749
H       3.78890746     -1.09164241      0.08325714
H       3.25645883      0.65767491      0.23234702
H       1.48059476     -1.83264750     -0.14732390
H       1.55405726      1.80835713     -0.20858636
H      -0.09248662      1.93317504     -0.46534001
H      -1.64400574      1.01753010      0.66027760
H      -3.08607234     -1.09198546     -0.79670072
H      -3.79981678      0.26520088      0.08495394
H      -3.00468328     -1.05990817      0.97195814
