16
b3lypvtz=-204420.12337313
C       1.97795461     -0.08761163      0.19822731
C       0.72364211      0.04670396     -0.63134237
C      -0.66564347     -0.27160404     -0.05768920
C      -1.04131451      0.76480548      0.97938316
C      -1.01997113      1.13659273     -0.46729588
O       0.31855132      1.43076154     -0.88663830
N      -1.41008841     -1.47501931     -0.18264258
H       1.86678682      0.38993387      1.17149377
H       2.82550409      0.37262652     -0.31241846
H       2.21198079     -1.14397648      0.35160226
H       0.84803876     -0.45759102     -1.59729649
H      -0.30916253      1.19369795      1.65221024
H      -2.02566830      0.60105167      1.39775020
H      -1.84290222      1.55298480     -1.03040185
H      -1.14718393     -2.16066228      0.51486495
H      -1.31052399     -1.89269372     -1.09980673
