15
b3lypvtz=-191221.88335062
C      -2.35794389     -0.04934545      0.11845998
C      -1.02241955     -0.00629628     -0.04484699
N      -0.31177790      1.19009155     -0.05024211
C       1.07107374      1.23414068     -0.05894680
C       1.81804879      0.13311805      0.03066665
C       1.14606379     -1.19929541      0.17984200
N      -0.23356153     -1.11933144     -0.31294663
H      -2.93790634      0.85704147      0.20282891
H      -2.88581155     -0.99023013      0.11571660
H      -0.83418462      2.03590745      0.07943293
H       1.49724677      2.22323722     -0.15265063
H       2.89483332      0.19076041      0.00296481
H       1.18575342     -1.53372375      1.22946581
H       1.66535223     -1.95857304     -0.40976511
H      -0.74952468     -1.98038934     -0.23162442
