17
b3lypvtz=-191982.34553461
C      -3.17245932     -0.35517745      0.03390670
C      -1.81314702      0.27761411      0.04300056
C      -0.68010145     -0.42429614     -0.03906877
N       0.62182873      0.07710139     -0.04918893
C       0.82063645      1.51083036     -0.00674740
C       1.68656590     -0.81094463     -0.04603043
N       2.93886370     -0.60706487      0.01569985
H      -3.77443820     -0.00066589     -0.80781432
H      -3.73201984     -0.11470482      0.94243246
H      -3.10812435     -1.44185191     -0.03913702
H      -1.78216958      1.35722904      0.12361634
H      -0.71864820     -1.50528061     -0.10590705
H       1.86563743      1.74705843     -0.18450314
H       0.22546386      1.99192898     -0.78479593
H       0.52690157      1.92537449      0.96146025
H       1.34361881     -1.84259410     -0.11167273
H       3.18816851      0.37656561      0.09126156
