13
b3lypvtz=-270368.78089103
F      -1.09584984     -1.14779059     -0.61238028
C      -1.12432755     -0.20060803      0.37198413
F      -2.07154128      0.72356157      0.02029140
C       0.21753947      0.48952929      0.50559296
C       0.97821052      0.80636134     -0.79488269
C       2.00365886     -0.21742596     -0.27668148
O       1.23320363     -0.43562911      0.93660802
H      -1.43757244     -0.69049163      1.29611622
H       0.09743613      1.32167910      1.20504169
H       1.33760984      1.82896677     -0.86828048
H       0.46104109      0.53205915     -1.70971759
H       2.99685451      0.17380166     -0.05024624
H       2.09423606     -1.13458556     -0.86046265
