19
b3lypvtz=-192735.55232227
C      -2.66911727     -1.03299941      0.24442523
N      -1.83878319     -0.40241430     -0.46254166
C      -0.71977797      0.26212022      0.20069744
C      -0.82273365      1.76343207     -0.07904968
C       0.58320331     -0.35651403     -0.32724985
C       1.84860051      0.15532615      0.35577161
N       3.02461915     -0.53598084     -0.18291910
H      -2.59743548     -1.11089096      1.33763365
H      -3.50916154     -1.53409272     -0.23262352
H      -0.77069520      0.10044510      1.28966094
H      -0.02264885      2.31222692      0.41795923
H      -0.76297466      1.95370938     -1.15157037
H      -1.77443179      2.15513659      0.28177099
H       0.65580167     -0.18629805     -1.40312543
H       0.52398817     -1.44074667     -0.18787089
H       1.73926477      0.05179953      1.44623576
H       1.97763861      1.22034926      0.15376639
H       2.99078558     -1.52197797      0.05102681
H       3.87334483     -0.16948630      0.23113446
