20
b3lypvtz=-182673.65706613
C       0.80891104      1.67661465      0.04891305
C       0.47603406      0.44467394     -0.36993586
C      -0.83960000      0.15892610     -1.05657095
C      -1.81676850     -0.71746697     -0.24897281
C      -2.32225783     -0.06140641      1.03472704
N       1.30350106     -0.65914696     -0.25526615
C       2.50648900     -0.62537853      0.54532598
H       1.74232291      1.89376290      0.54635349
H       0.13930426      2.50417075     -0.12678376
H      -1.32254771      1.10922662     -1.28635002
H      -0.63393471     -0.33173854     -2.01322855
H      -1.34869689     -1.67723477     -0.00734744
H      -2.66568079     -0.95928101     -0.89379237
H      -2.85164802      0.86836702      0.81464299
H      -1.50017906      0.18349544      1.70791130
H      -3.01187280     -0.71924623      1.56635373
H       0.84224065     -1.55080946     -0.30286126
H       3.22607268      0.07909363      0.12215599
H       2.96487669     -1.61301134      0.54345295
H       2.31903095     -0.32639180      1.58475564
