15
b3lypvtz=-214514.69273382
C       1.41035359     -1.54757018     -0.46638554
C       0.58277822     -0.69286287      0.12389257
C       1.03606645      0.62816239      0.70150551
N       0.98854774      1.70169080     -0.30594165
O      -0.73101650     -1.09532706      0.30858757
C      -1.82329654     -0.28435112      0.07224648
N      -1.90463615      0.86524704     -0.41465028
H       1.05237547     -2.48053803     -0.87620021
H       2.46674408     -1.33051800     -0.53027743
H       2.03664298      0.47909001      1.12056061
H       0.37720432      0.90769944      1.52414877
H       1.65509154      1.51849147     -1.04632015
H       1.23123866      2.59274061      0.11097820
H      -2.70186446     -0.84178147      0.38509344
H      -1.00162139      1.28249696     -0.65981390
