16
b3lypvtz=-202038.54995125
C      -3.53918020     -0.04522917     -0.01132539
C      -2.10946999     -0.48878068     -0.05287484
C      -1.06886992      0.33533739      0.06908033
N       0.26981984     -0.04174047      0.05431190
C       1.31804930      0.84318677     -0.01366349
N       2.55842956      0.54144549     -0.06190324
N       2.79603836     -0.86703165     -0.04950248
H      -4.06628771     -0.29970745     -0.93544151
H      -3.61747186      1.03398560      0.12875414
H      -4.08683805     -0.52680137      0.80419285
H      -1.92603962     -1.55074125     -0.19095933
H      -1.21903607      1.40014567      0.20924210
H       0.50146921     -1.00087026     -0.16338618
H       1.05303887      1.89433750     -0.02029868
H       2.53117568     -1.24588470      0.86004968
H       3.79859260     -0.97909544     -0.12234584
