15
b3lypvtz=-219533.82521505
C       3.05478558     -0.14399272     -0.00063122
C       1.67821496     -0.72754076      0.00113351
C       0.53687210     -0.03495194      0.00258037
F       0.60067277      1.33073756      0.00233962
C      -0.81053502     -0.55110311      0.00905575
C      -1.90810007      0.22431339      0.00318761
N      -3.21336904     -0.21820629     -0.06672548
H       3.62301928     -0.46587497      0.87720801
H       3.62221633     -0.47014987     -0.87730450
H       3.02738291      0.94379526     -0.00327490
H       1.58148061     -1.80615972      0.00078824
H      -0.90195678     -1.63113448      0.01126009
H      -1.80111862      1.30093246     -0.00117853
H      -3.91582795      0.39845069      0.30467525
H      -3.37999706     -1.18704650      0.15456816
