14
b3lypvtz=-226988.69560241
C      -2.75364172      0.25778372      0.13461708
O      -1.44428160      0.25855161     -0.40164966
C      -0.58086153     -0.64304459      0.24326842
C       0.81290064     -0.46436169     -0.35700772
O       1.61976199     -1.50516466      0.16949471
C       1.37513742      0.86262306     -0.04292862
N       1.86224860      1.87589934      0.20021837
H      -3.33108149      0.98633865     -0.43002514
H      -3.22525230     -0.72733223      0.03727719
H      -2.75146549      0.54388808      1.19252732
H      -0.88296302     -1.68433855      0.07710184
H      -0.54140657     -0.46477595      1.32446462
H       0.72322770     -0.53247320     -1.44676946
H       2.52254040     -1.39934560     -0.14752695
