10
b3lypvtz=-199741.03098414
C       2.54844770     -0.24691126     -0.05555247
C       1.35493728     -0.11019253     -0.03149442
C      -0.04290078      0.05463205     -0.00426575
C      -0.86248158      1.16268544     -0.09696843
N      -2.15410549      0.76092027     -0.01324351
N      -2.19480061     -0.53145839      0.12682127
N      -0.93032721     -0.96992896      0.13429420
H       3.60380066     -0.36198394     -0.07762046
H      -0.58737090      2.19528345     -0.21627672
H      -0.73519907     -1.95304615      0.23430628
