15
b3lypvtz=-191210.83727625
C       2.81559228     -0.61725845     -0.00833685
N       1.82314094      0.17567206      0.02911855
C       0.54570713     -0.35821299     -0.10347481
C      -0.56525285      0.39775907     -0.04940485
C      -0.54449323      1.88987490      0.10950844
C      -1.89747667     -0.23065235     -0.19761238
N      -2.28341261     -1.38395471      0.17252295
H       3.82004786     -0.21683920      0.08849496
H       2.71332008     -1.70130501     -0.13352518
H       0.46092116     -1.43230246     -0.27972166
H       0.47380361      2.26256065      0.16850421
H      -1.08434241      2.19104982      1.01129973
H      -1.05036509      2.36892786     -0.73343628
H      -2.64821883      0.40365646     -0.67653307
H      -1.52947036     -1.88593564      0.64713124
