15
b3lypvtz=-240247.20324121
C       2.74791994     -0.39959592      0.16920743
O       1.44722076     -0.16213784     -0.34739798
C       0.78625412      0.94859728      0.25770595
C      -0.62011467      1.05183933     -0.31611436
C      -1.54564485     -0.12300050     -0.00947361
O      -2.71028829      0.01174892      0.24734765
O      -0.97872694     -1.34487931     -0.07284493
H       3.39621532      0.46647976      0.00202654
H       3.15416733     -1.25757931     -0.36162250
H       2.71583178     -0.61810756      1.24173387
H       0.75690331      0.81339393      1.34604235
H       1.34536203      1.86698114      0.04803642
H      -0.55095892      1.14404223     -1.40383656
H      -1.10732106      1.95083773      0.05642685
H      -0.02772187     -1.24862888     -0.27212313
