20
b3lypvtz=-182661.1860558
N      -3.20958010     -0.39698174      0.04449920
C      -1.88987899     -0.05668181     -0.50210694
C      -0.98537876      0.49559731      0.59616219
C       0.38115021      0.99105903      0.10488727
C       1.30148775     -0.08993147     -0.42145979
C       2.79361197      0.09005418     -0.36309118
C       2.12045199     -0.91759626      0.53363770
H      -3.82036818     -0.73568515     -0.68961908
H      -3.12326501     -1.15267195      0.71546892
H      -1.39687744     -0.90347706     -0.99879097
H      -2.03666615      0.71350482     -1.26491801
H      -0.83513681     -0.27637848      1.35910053
H      -1.51659124      1.31550636      1.08541520
H       0.23133792      1.74981102     -0.67138132
H       0.88507983      1.50192285      0.93090500
H       0.93683593     -0.61630766     -1.29542169
H       3.17309930      0.99562227      0.09216498
H       3.39177569     -0.27615404     -1.18619562
H       2.26366504     -1.96826502      0.32149837
H       2.04938505     -0.68412919      1.58826723
