13
b3lypvtz=-213752.30402045
C      -2.39173102      0.51522734     -0.53271645
C      -1.22443827      0.72295593     -1.13784620
C       0.11627598      0.26933462     -0.68693670
O       1.09538499      0.56516738     -1.38619964
C       0.25431562     -0.49851803      0.54171731
N       1.37584291     -0.94731923      1.03344353
N       2.51119328     -0.72503806      0.42251947
H      -2.48411514     -0.03261011      0.39487839
H      -3.31129662      0.89616465     -0.95729053
H      -1.18218721      1.27942474     -2.06740093
H      -0.61742769     -0.74208880      1.12996008
H       3.32730798     -1.10449046      0.86602589
H       2.53087519     -0.19810997     -0.44665421
