15
b3lypvtz=-216914.55667007
C       1.49476992      0.65287657     -0.12216190
C       1.49480107     -0.65280871      0.12216625
C       0.25780092     -1.50646645      0.22518949
O      -0.80919122     -1.01797283     -0.58529413
C      -1.57627968     -0.00003822      0.00000237
O      -0.80923994      1.01793570      0.58529569
C       0.25772940      1.50647552     -0.22519110
H       2.44073912      1.17329696     -0.22693656
H       2.44079494     -1.17318327      0.22694607
H      -0.06660807     -1.61020666      1.26907501
H       0.47654654     -2.50814148     -0.14769280
H      -2.20210301     -0.38118745      0.81453345
H      -2.20212415      0.38107952     -0.81452732
H      -0.06668490      1.61019243     -1.26907726
H       0.47642807      2.50816340      0.14768375
