17
b3lypvtz=-194368.12444968
C      -1.74494312      0.03313529     -1.00852485
C      -0.81619716      0.17881303      0.16667589
C      -1.25450262      0.30317957      1.41711912
C       0.64388472      0.19744132     -0.17534263
C       1.38355712     -1.08068883     -0.42238102
C       1.71101564     -0.23341499      0.79038465
O       0.99448064      1.22271069     -1.08856053
H      -1.56109554      0.81868985     -1.74331004
H      -2.78876151      0.07619535     -0.70033976
H      -1.57260058     -0.91770810     -1.52012770
H      -0.57524694      0.42005770      2.25087882
H      -2.31241561      0.28632176      1.64721174
H       2.08732953     -1.07826529     -1.24290960
H       0.85916353     -2.01241408     -0.26219404
H       2.63462213      0.32740377      0.76402612
H       1.42799496     -0.60799343      1.76332319
H       0.88371480      2.06653641     -0.63592936
