15
b3lypvtz=-193585.82558233786
C       1.43324415      0.52034995     -1.48421568
C       0.57451353     -0.67817354     -1.07221508
C       0.24649235     -0.67215507      0.41011257
C      -1.01639277     -1.27748239      0.95941837
C      -0.97147866      0.02093468      0.95906387
C      -1.66280261      1.26938483      1.24201525
O      -1.23392149      2.36531759      0.96138071
H       2.38222895      0.52635899     -0.94363315
H       1.66025724      0.49492165     -2.55109823
H       0.92216151      1.45875922     -1.26463363
H      -0.35733015     -0.68282610     -1.64412016
H       1.09795800     -1.60750433     -1.31963765
H       1.12876541     -0.70185042      1.05046572
H      -1.56275299     -2.18389731      1.15654124
H      -2.64094250      1.14786223      1.74585609
