11
b3lypvtz=-217976.61330453
C      -2.95629365     -0.59332533     -0.00003106
C      -1.94769495      0.06198353     -0.00001357
C      -0.80203373      0.88708643     -0.00000099
C       0.46061563      0.43464040      0.00000180
F       1.46006935      1.33845051      0.00001518
C       0.90559522     -0.95837041     -0.00000711
N       2.11159342     -1.35685263     -0.00000560
H      -3.83985314     -1.18186414     -0.00003250
H      -0.95447239      1.96047597      0.00000741
H       0.10397010     -1.69392518     -0.00001946
H       2.75469715     -0.56230315      0.00000491
