10
b3lypvtz=-225425.95663864
C       3.10250383     -0.22244563     -1.26723100
C       2.00658788     -0.04958471     -0.80830480
C       0.74874464      0.18409532     -0.19749038
N      -0.32763872     -0.09894221     -0.82465821
O      -1.42812656      0.22762986      0.00131636
C      -2.64314650     -0.03506113     -0.57293080
O      -2.85269303     -0.48993276     -1.64928275
H       4.06342901     -0.38263490     -1.69006265
H       0.72786348      0.60528015      0.80618822
H      -3.39772404      0.26169601      0.16785601
