13
b3lypvtz=-262775.24077439
C      -0.73744404     -0.90814077     -0.00912912
C       0.27128576      0.23535823     -0.01624751
C       1.71464814     -0.21287645      0.21361099
O       2.03886440     -1.33559606      0.48904097
O       0.26259338      0.92180015     -1.23564746
O      -0.09093215      1.10296870      1.05700039
O      -2.00091775     -0.41856482     -0.44787332
H      -0.42858785     -1.67299277     -0.71760109
H      -0.79006519     -1.35226585      0.98565880
H       2.45343627      0.61057831      0.12800051
H      -0.65187040      0.89365711     -1.55761581
H       0.29673765      1.96705952      0.87258370
H      -2.33774823      0.16901472      0.23821894
