9
b3lypvtz=-258870.31656856
C      -1.04952542      0.74857564     -0.22377980
O      -1.83824217      1.63460604     -0.35460597
N      -1.16487030     -0.55746042      0.11248339
N       0.05024599     -1.24360878      0.14633643
C       0.88177911     -0.32731402     -0.17388709
O       0.35587961      0.89519396     -0.41767623
O       2.19470882     -0.47943168     -0.28318296
H      -2.02152614     -1.03384125      0.32648608
H       2.59155049      0.36328049     -0.53609840
