11
b3lypvtz=-213013.98848441
C       0.95605077      1.84488480      0.00008912
C       0.10519976      0.81874201      0.00010723
N      -1.30136083      0.89164112     -0.00043083
C      -1.66646122     -0.34860763     -0.00003765
N      -0.65513411     -1.33526956     -0.00007334
C       0.42295332     -0.62595301     -0.00008473
O       1.66378207     -1.10470889      0.00000558
H       0.58910278      2.86163236      0.00008856
H       2.02363023      1.67649238      0.00005473
H      -2.70302729     -0.65640060      0.00018513
H       1.60870653     -2.07135298     -0.00002680
