17
b3lypvtz=-191943.48154483
N       2.31580204     -0.52285096      0.62015497
C       0.91737844     -0.14542968      0.68421624
C       0.45110291      1.29946665      0.31603759
N      -0.46247089      0.78928070     -0.74754903
C      -1.80778935      0.37461325     -0.22766610
C      -1.38038914     -1.11474433     -0.18317600
C       0.04159058     -0.62267826     -0.50041217
H       2.76125835     -0.12838959     -0.20112967
H       2.82525435     -0.18446054      1.42772060
H       0.53066859     -0.48435698      1.64705541
H      -0.04304973      1.88326615      1.09712309
H       1.25359928      1.90443393     -0.11441998
H      -2.05173403      0.81231435      0.74424147
H      -2.61339269      0.61261996     -0.92224637
H      -1.51033128     -1.64310913      0.76123412
H      -1.81800588     -1.71238453     -0.98102288
H       0.59050845     -1.11759098     -1.30336129
