18
b3lypvtz=-205202.02072226
C       1.73737607     -0.92811111     -0.68347500
C       0.83944244      0.27104394     -0.38793261
N       1.43717449      1.08385044      0.67833823
C      -0.56251621     -0.13640902      0.04827151
C      -0.69738678     -0.98148764      1.29152257
C      -1.63169437     -0.13822395     -0.95479861
O      -1.50554442      0.95649566     -0.03989160
H       1.29010979     -1.57722931     -1.43770633
H       1.92065865     -1.51166833      0.21867872
H       2.70363474     -0.59241461     -1.06562905
H       0.71245262      0.84102863     -1.31875022
H       0.89497703      1.93101086      0.80687575
H       2.37555715      1.36738624      0.42253468
H      -1.74514307     -1.04845348      1.58132780
H      -0.13030473     -0.53966937      2.10999487
H      -0.32086038     -1.99190304      1.12263486
H      -1.40710309      0.09677818     -1.99112319
H      -2.50339193     -0.76771610     -0.80295739
