14
b3lypvtz=-203673.38800909
O       2.39104493     -0.61642418     -0.00762009
C       1.66643869      0.34678164     -0.15200949
N       0.36969818      0.40417032      0.23128313
C      -0.72983149      1.32229592     -0.13343831
C      -1.71748681      0.19451079      0.19426096
C      -1.38475117     -1.04914774     -0.58701610
C      -0.53272766     -0.67811536      0.58813023
H       2.01409717      1.30464285     -0.58277814
H      -0.71439245      1.67718147     -1.16630545
H      -0.80026074      2.17041935      0.54856743
H      -2.65429917      0.33048133      0.70969747
H      -0.97725518     -0.98143857     -1.58861324
H      -2.05600859     -1.88191518     -0.42329544
H      -0.35726872     -1.30335664      1.44976004
