15
b3lypvtz=-193613.16493392
C      -0.72997067      1.47405771     -0.05427105
C      -1.56613104      0.43760347      0.06969582
C      -1.20505693     -1.01598151      0.16367600
O       0.00004721     -1.39090466     -0.47631209
C       1.20513201     -1.01590022      0.16366321
C       1.56609816      0.43771259      0.06970128
C       0.72986519      1.47410857     -0.05426417
H      -1.18019379      2.45777799     -0.13073516
H      -2.63177494      0.64228524      0.09578909
H      -1.19669140     -1.33340158      1.21776133
H      -1.98123874     -1.60418314     -0.33097989
H       1.98135045     -1.60403612     -0.33101376
H       1.19680738     -1.33333753      1.21774384
H       2.63172711      0.64247113      0.09580744
H       1.18002002      2.45786108     -0.13071590
