13
b3lypvtz=-211322.56162221
N       3.68421147     -0.49991146      0.08846677
N       2.69557208      0.22351836     -0.17164228
C       1.47101816     -0.40766871      0.04924818
C       0.33253382      0.26647174     -0.19391241
C      -0.98066646     -0.27789722     -0.00040181
N      -2.01860052      0.44059664     -0.24807075
N      -3.23576584     -0.11989587     -0.11490107
H       4.51897672      0.06617462     -0.11093893
H       1.49400139     -1.43251572      0.41308458
H       0.39717734      1.28486257     -0.55675436
H      -1.07589756     -1.30875748      0.35538608
H      -3.96488078      0.56412587      0.00051591
H      -3.31767983     -0.93190333      0.48992010
