12
b3lypvtz=-223813.82506759
C       0.99295985      1.60128726      0.01503055
C       0.99069721      0.25853682     -0.00194315
N       2.09830193     -0.56002434      0.07074956
C      -0.27858412     -0.51040714     -0.12044608
O      -0.33509494     -1.71362965     -0.03696189
N      -1.46941511      0.22040310     -0.47576726
N      -2.20689337      0.52468903      0.46538288
H       1.90976761      2.16266638      0.13375838
H       0.08018876      2.15937463     -0.10093542
H       1.90060305     -1.51690808      0.31853287
H       2.93030372     -0.17413988      0.48264409
H      -3.04024760      0.97883187      0.05897148
