16
b3lypvtz=-204425.54666141
C       2.96793273      0.44264073     -0.21832163
O       1.64425023      0.74310176     -0.62857415
C       0.78672747     -0.33761901     -0.59548164
C      -0.45601713     -0.20178707     -0.14544704
C      -1.70271891     -1.06598999     -0.13837474
C      -2.45685197      0.26071895      0.17031339
N      -1.14113255      0.89568005      0.41580545
H       3.40445858     -0.34885436     -0.83877834
H       3.55465653      1.35144527     -0.33969421
H       2.99950865      0.12597885      0.82904367
H       1.15324312     -1.27187318     -1.00729334
H      -1.96020141     -1.55747443     -1.07373323
H      -1.74199646     -1.79001439      0.67508721
H      -2.98791592      0.65458561     -0.69999272
H      -3.12211113      0.26638906      1.03392759
H      -0.94183184      1.83307214      0.09567778
