14
b3lypvtz=-226998.94719958
C       2.63399369     -0.16670519     -0.14998643
C       1.52441936      0.55703202     -0.06432847
C       0.15732749      0.03651517     -0.29841583
N      -0.19796962     -1.07285682     -0.81533838
O      -0.76048333      0.92835649      0.12572399
C      -2.14387158      0.58469892     -0.13741102
O      -2.56675755     -0.53207514      0.55568174
H       2.61991853     -1.22179374     -0.39532666
H       3.60415899      0.27401096      0.03187608
H       1.56915915      1.60302053      0.21123680
H       0.60110748     -1.61881388     -1.11870186
H      -2.70674661      1.44264337      0.21808471
H      -2.23963368      0.46547866     -1.21973085
H      -2.09472231     -1.27941134      0.15673619
