15
b3lypvtz=-170318.76642691
C       2.73972724      0.31593042     -0.00030520
C       1.68737171     -0.50774690      0.00020698
C       0.28156230     -0.14164468      0.00009580
C      -0.30299924      1.08253988      0.00018275
C      -1.75122557      0.94108302      0.00000562
C      -2.07663162     -0.36518098     -0.00016411
C      -0.81834132     -1.17703625     -0.00011287
H       3.74938166     -0.07026849     -0.00012851
H       2.63132697      1.39319789     -0.00093979
H       1.88350995     -1.57646063      0.00073085
H       0.21268210      2.03210479      0.00040445
H      -2.44483680      1.76975708      0.00004685
H      -3.07054613     -0.78545378     -0.00033841
H      -0.75234831     -1.83429603      0.87514088
H      -0.75218494     -1.83410035     -0.87550230
