13
b3lypvtz=-213742.97636823
C       3.01768932      0.30605841      0.22265739
N       2.26185102     -0.67822798     -0.06101425
N       0.90677406     -0.53325288     -0.11626623
C       0.18605367      0.62481520     -0.13150233
C      -1.16246565      0.75293484     -0.09252668
C      -2.10993244     -0.33142944      0.07072189
O      -3.31699679     -0.19316727      0.07919346
H       2.68388131      1.31166402      0.46840693
H       4.08105418      0.10852241      0.22692697
H       0.44277640     -1.41599278     -0.23489081
H       0.78886380      1.51884870     -0.21495185
H      -1.58148049      1.74557946     -0.18267108
H      -1.67938739     -1.34748969      0.20820057
