15
b3lypvtz=-191148.52385985
C       0.67507009      1.21691168      0.68902424
C       0.02932833      0.60357086     -0.55215077
C       0.69371824     -0.79085843     -0.34406329
C       0.32865631     -0.22370051      1.06102112
N      -1.02192905     -0.15203524      0.30186098
C      -0.68867342     -1.44743204     -0.42448152
N       2.00287232     -1.16291610     -0.77806523
H       0.10581740      1.99656561      1.19451915
H       1.73389226      1.45751727      0.61580826
H      -0.26072610      1.06409598     -1.49614269
H       0.39149434     -0.73850007      2.01937976
H      -1.16603166     -1.53222538     -1.40360568
H      -0.87370790     -2.34205288      0.17480544
H       2.04218540     -1.28872200     -1.78275103
H       2.30953344     -2.02601873     -0.34475875
