19
b3lypvtz=-195135.53878602
C       3.02087314     -0.32743360     -0.35356907
C       1.83277521     -0.43206635      0.22879027
C       0.86066340      0.69518217      0.40569256
C      -0.51207325      0.42550870     -0.22056119
C      -1.42094344      1.64968233     -0.14114104
O      -1.06995521     -0.68800760      0.47815979
C      -2.07761755     -1.38745504     -0.22064782
H       3.68145782     -1.17906684     -0.45201929
H       3.38056265      0.61568405     -0.74995917
H       1.50887031     -1.39317884      0.61364231
H       0.69587657      0.87602742      1.47371917
H       1.27150892      1.61372341     -0.01916405
H      -0.37076043      0.14462723     -1.27347334
H      -1.55020295      1.95710490      0.89799991
H      -2.40588140      1.44506754     -0.56136750
H      -0.99147742      2.48389044     -0.69876936
H      -2.36401682     -2.23676870      0.39771899
H      -2.96791893     -0.77439377     -0.40016955
H      -1.71143062     -1.75927744     -1.18569161
