12
b3lypvtz=-226217.7796879
N       2.28047707      0.01193279     -0.08064542
C       0.89659812      0.08265450     -0.00411215
C       0.15357939      1.18808575      0.03927179
O      -1.24793585      1.17681137     -0.03461317
C      -1.76962645     -0.08866253      0.00710779
C      -1.03629929     -1.19192648      0.01510661
O       0.35497929     -1.18835055     -0.03687137
H       2.73959230      0.89835229      0.06414944
H       2.66503152     -0.70462813      0.52194561
H       0.56214903      2.18181307      0.10059746
H      -2.84738356     -0.10736803      0.03404884
H      -1.45017857     -2.18519205      0.04790157
