16
b3lypvtz=-181149.53836119
C       0.86803680      1.81016495      0.06010288
C       0.44155635      0.37851302     -0.30908828
C       1.54916593     -0.56055089     -0.09007073
N       2.41985097     -1.28961956      0.09637812
C      -0.79740444     -0.07251141      0.45045520
C      -1.69339776     -1.13681915     -0.11326680
C      -2.15936774      0.29523658     -0.07105567
H       1.74196890      2.12057939     -0.51135926
H       1.11291165      1.87710893      1.12014277
H       0.05033288      2.49924250     -0.14904387
H       0.21585829      0.34672151     -1.37975450
H      -0.67342235     -0.06780911      1.52657891
H      -1.43492678     -1.55576062     -1.07663927
H      -2.13715249     -1.84434383      0.57235962
H      -2.92301843      0.56941735      0.64297638
H      -2.21389779      0.83510434     -1.00749450
