17
b3lypvtz=-212855.41457505
C      -0.74098723      1.98982119     -0.17389204
C      -0.70432189      0.58063568      0.41103067
C      -1.46509321     -0.42700596     -0.46269450
N      -1.43497645     -1.76370203      0.13735737
N       0.67020356      0.15141526      0.67396971
N       1.54382714      0.13294145     -0.32835234
N       2.55562948     -0.57371259     -0.11054638
H      -0.23701275      2.69253393      0.48904954
H      -1.77388769      2.31660404     -0.30220361
H      -0.24566586      2.02390419     -1.14329757
H      -1.18038390      0.58301132      1.39318311
H      -2.50675488     -0.10499674     -0.52351076
H      -1.05424194     -0.38795886     -1.48035333
H      -2.13668891     -2.35801622     -0.28534431
H      -0.54137689     -2.20919306     -0.03570970
H       0.83647651     -0.53367538      1.40665555
H       3.15413191     -0.46035224     -0.93025843
