19
b3lypvtz=-192751.16338374
C      -1.88299906      1.02396109     -0.82045119
C      -1.20951569      0.09606684      0.20714581
C      -2.17705006     -1.01625066      0.63936907
C       0.08009280     -0.48501033     -0.30945804
C       1.32082764     -0.05866281     -0.02065850
N       1.63860515      1.11298367      0.67745344
N       2.48859224     -0.75085007     -0.38486944
H      -1.22428025      1.84774240     -1.09906121
H      -2.12380041      0.47276222     -1.73280766
H      -2.81275657      1.44507632     -0.42852594
H      -0.99418886      0.69596347      1.09995519
H      -2.42931574     -1.65605869     -0.21049206
H      -3.10939713     -0.60243813      1.03010568
H      -1.73246289     -1.64744020      1.40997376
H      -0.00960267     -1.32640991     -0.98911646
H       2.35176807      0.96898334      1.37990802
H       0.84069228      1.59685944      1.05770043
H       3.17187671     -0.15214256     -0.83126783
H       2.30140945     -1.56481643     -0.95074505
