14
b3lypvtz=-227004.78291219
C      -2.54305429     -0.44284360      0.50256973
C      -1.23710232      0.28399490      0.31688802
N      -0.82042750      0.77070489     -0.99154465
C      -0.10245226     -0.37714231     -0.39569872
C       1.31773351     -0.19470594      0.00982252
O       2.13837112     -1.07888055     -0.01951885
O       1.59668040      1.05136223      0.44848949
H      -2.54767653     -1.00556748      1.43780739
H      -2.72588052     -1.14392069     -0.31454512
H      -3.37447828      0.26443584      0.53521870
H      -0.96758598      0.96632739      1.11503542
H      -1.44459764      0.42477219     -1.71491203
H      -0.28115621     -1.36505171     -0.79948562
H       2.53272650      1.05152483      0.69623472
