13
b3lypvtz=-213780.7917332
C       2.45186287      0.33526749      0.00001323
O       1.42657730     -0.66604929      0.00002251
C       0.17295722     -0.19452005      0.00001018
N      -0.22218197      1.04867107     -0.00008134
C      -1.60625221      0.97717643      0.00000074
C      -2.02501729     -0.31705310     -0.00000655
N      -0.86084080     -1.07581318      0.00000847
H      -0.78018408     -2.07702573      0.00009126
H       2.37342463      0.96400929     -0.88664601
H       2.37342225      0.96402863      0.88665891
H       3.39189600     -0.20919606      0.00002141
H      -2.20919289      1.86900710      0.00011009
H      -3.00080904     -0.76738060     -0.00009290
