16
b3lypvtz=-181087.5887936
C       0.81928619      1.38997053      0.13322931
C      -0.48113207      0.75307967     -0.38825642
C       0.25901924     -0.55058776     -0.84748867
C       0.96179895     -0.10185515      0.47863552
C      -0.56047622     -0.24255852      0.82031651
C      -0.71512922     -1.46805835     -0.09306432
N      -2.02436795     -1.65941954     -0.70143172
H       0.72574705      2.08161548      0.97313763
H       1.50665842      1.78853041     -0.61595064
H      -1.32614530      1.21553370     -0.88893654
H       0.74563807     -0.70909644     -1.80979217
H       1.77941277     -0.62119064      0.97641314
H      -1.02168613     -0.04454050      1.78779116
H      -0.25704194     -2.38636860      0.30167873
H      -2.67286906     -2.05639143     -0.03051591
H      -1.96601279     -2.32036288     -1.46826561
