12
b3lypvtz=-202904.14535487
C       2.79336580     -0.71485316      0.16568524
C       1.79965527     -0.03610483      0.19542244
C       0.67527409      0.81645457      0.24642215
C      -0.60151550      0.43628780      0.02350009
O      -1.65217388      1.29441428      0.08377265
C      -0.99831234     -0.94183901     -0.30819630
N      -2.18194858     -1.34479894     -0.52686125
H       3.66202402     -1.32388326      0.13635821
H       0.87443196      1.85789276      0.48570906
H      -1.34773236      2.18167368      0.30277651
H      -0.17883331     -1.65434033     -0.36293617
H      -2.84423516     -0.57090356     -0.44145263
