13
b3lypvtz=-213738.69307641
C      -1.56521791      1.62534720     -0.01929881
C      -0.16873789      1.12181176     -0.06641737
C       0.25460048     -0.15588173     -0.04957691
C      -0.59516572     -1.36825433     -0.03848464
O      -1.78351577     -1.40406400      0.18612474
N       1.63767975     -0.49180637     -0.19916961
N       2.44510541      0.34052905      0.24006342
H      -2.30263573      0.83157742     -0.06152014
H      -1.73309341      2.34483913     -0.82514155
H      -1.71055089      2.18062065      0.91415338
H       0.61581770      1.86874633     -0.14317772
H      -0.02666817     -2.29215439     -0.25661903
H       3.38542715     -0.01752772      0.02499524
