14
b3lypvtz=-226990.96817817
C       0.85532591      0.01547180     -0.01485605
H       0.43443214     -0.21909320      0.96793729
H       0.35898341      0.91545355     -0.38494417
C       0.57951006     -1.13964978     -0.97774221
H       1.07265807     -0.88994630     -1.92923866
C       1.18502881     -2.43389996     -0.49222395
H       2.27457989     -2.43119583     -0.40554072
N       0.45324813     -3.42271969     -0.19087763
H       1.01049253     -4.21295263      0.13177690
C      -0.89859284     -1.29171994     -1.28839509
H      -1.15119948     -2.15346994     -1.93046947
O      -1.74801881     -0.52890284     -0.90492675
O       2.27036413      0.18491142      0.05069089
H       2.46728804      0.89551334      0.66700962
