15
b3lypvtz=-214479.94588390324
C       2.41641957     -0.06038159      0.62276271
C       1.09228862     -0.54662281      0.14428356
C       0.01078728      0.19417081     -0.16126288
C      -1.29920920     -0.36994359     -0.64202209
N      -2.34397847     -0.24397910      0.38499882
N       0.16071454      1.60199434     -0.01896582
O      -0.83777656      2.25157698     -0.28374171
H       3.20621381     -0.40674220     -0.05018942
H       2.63746097     -0.49722011      1.60119732
H       2.45664790      1.02134571      0.69800568
H       0.99451132     -1.62307887      0.03711998
H      -1.15604516     -1.42994746     -0.85434647
H      -1.55706136      0.12326583     -1.58855894
H      -3.17282493     -0.74511541      0.08748956
H      -2.60814835      0.73067745      0.46829862
