16
b3lypvtz=-181109.42174328
C      -2.37527027     -0.42558351      0.36440522
C      -1.48007403      0.02132043     -0.50983079
C      -0.03132681      0.13279914     -0.27427561
C       1.05803643     -0.62616430     -1.04540275
N       1.81195542     -0.84057595      0.22918022
C       0.81205289     -0.06924975      0.97222759
C       0.61494810      1.31425570      0.42275072
H      -3.42983753     -0.45857673      0.12502173
H      -2.08367488     -0.77070618      1.34890661
H      -1.81921079      0.34606569     -1.49129652
H       1.58112376     -0.06013714     -1.82156559
H       0.71565180     -1.57480665     -1.46035276
H       2.73492309     -0.41719265      0.23820004
H       0.52264036     -0.35267121      1.97559141
H      -0.07716751      1.94287277      0.96772606
H       1.44532998      1.83845032     -0.04108559
