17
b3lypvtz=-191961.97761247
C      -0.86832103      1.47036780     -0.03108190
C      -0.54724761     -0.00135988     -0.17942259
C       0.78663070     -0.31862474     -0.82844955
C       2.02935614     -0.03180736     -0.01309150
N       2.13067525      0.25099052      1.21550577
C      -1.11606597     -0.98719815      0.77811897
N      -1.70968591     -0.82410154     -0.55946292
H      -1.84685100      1.59880046      0.42887882
H      -0.12503092      1.98811501      0.57721343
H      -0.89398639      1.95105038     -1.01184557
H       0.82599539     -1.38083252     -1.10074404
H       0.87378171      0.22389274     -1.77687251
H       2.96114901     -0.10441797     -0.58093239
H       1.21208212      0.28858064      1.66120476
H      -0.54790575     -1.88650424      0.98703687
H      -1.73886474     -0.64779563      1.59696585
H      -1.42571100     -1.58905551     -1.16312147
