13
b3lypvtz=-234646.84065573
C      -2.43454097      0.43893804      0.14837404
N      -1.30708734     -0.16153771     -0.53043762
N      -0.08810890      0.06339405     -0.08659554
N       0.79428728     -0.68889803     -0.57060137
C       2.09479079     -0.36933618     -0.10025941
N       3.06314223     -1.06862523     -0.51424800
O       2.21594527      0.66582551      0.76722766
H      -3.24981156      0.57235205     -0.56125015
H      -2.13541692      1.41481221      0.52427597
H      -2.79019802     -0.16893934      0.98606344
H      -1.42223134     -0.98770809     -1.10953401
H       3.93188462     -0.73673021     -0.09977107
H       1.32734482      1.02645293      0.91822530
