12
b3lypvtz=-226221.81747919
C       1.02078106      0.57185424     -0.30696340
C       2.07368008      0.02198010      0.46546832
N       1.63667016     -0.75847504      1.41842832
O       0.24736733     -0.74473456      1.29093672
C      -0.10001382      0.05470385      0.26138951
C      -1.56032536      0.16518476     -0.04567455
O      -1.89724409     -0.32861437     -1.33703600
H       1.08432532      1.23631787     -1.14946963
H       3.13716395      0.17052576      0.36105252
H      -2.12125273     -0.34065718      0.74580641
H      -1.85847595      1.21350018     -0.04975405
H      -1.66267594     -1.26158562     -1.37942826
