12
b3lypvtz=-179606.69519398
C      -3.38302607     -0.34909910     -0.00000735
C      -2.18373194     -0.26385508     -0.00000553
C      -0.76595541     -0.20875981     -0.00000309
C      -0.06733775      0.92837178     -0.00000219
C       1.43497393      1.03360814      0.00000073
C       2.13679690     -0.24588252      0.00000240
N       2.68282963     -1.25787457      0.00000346
H      -4.44220092     -0.41791874     -0.00000457
H      -0.24550715     -1.16164619     -0.00000185
H      -0.58654668      1.87905304     -0.00000353
H       1.76639947      1.60644732     -0.87243759
H       1.76639599      1.60644773      0.87244010
