14
b3lypvtz=-227019.74585677
N       2.34144976     -1.05817713     -0.34043432
C       1.88310874      0.11535001     -0.44459661
C       1.04300050      0.87858880      0.54824587
C      -0.37808166      1.13552604      0.03343624
C      -1.25341956     -0.09642942      0.08411744
O      -1.03082029     -1.09288095      0.72147265
O      -2.36943574      0.05813648     -0.66503128
H       2.05913966     -1.47849982      0.54833377
H       2.10866434      0.65525552     -1.37027004
H       0.99804329      0.33616693      1.49297484
H       1.52091172      1.84433729      0.73499015
H      -0.87435075      1.89682716      0.64163974
H      -0.37655807      1.52381592     -0.98666984
H      -2.89199994     -0.75155483     -0.56233559
