12
b3lypvtz=-223751.23906735
C       3.13145628     -0.92676746     -0.25211439
C       2.06325342     -0.53781946      0.12629466
C       0.77068901     -0.03763422      0.57788389
N      -0.28288305     -0.39780988     -0.37223549
N      -1.53253558     -0.07257570      0.07559238
N      -2.32866356      0.20117141     -0.82591426
O      -3.59718924      0.42542635     -0.32769954
H       4.07738642     -1.27836034     -0.58144748
H       0.50835122     -0.48331702      1.53906040
H       0.83716778      1.04687041      0.73341362
H      -0.11110718     -0.10198790     -1.32970078
H      -3.53602551      0.29570380      0.63676698
