11
b3lypvtz=-259590.92192983
C      -1.96002867     -0.75226005     -0.44316653
N      -2.59368534      0.26143645     -0.81988199
O      -0.64957102     -0.88674562     -0.06149653
N       0.05067486      0.34236945     -0.11979496
C       1.26168543      0.18136798      0.23876306
O       2.10176661      1.23289597      0.25433834
O       1.83184086     -0.95792925      0.62071599
H      -2.41630557     -1.73525889     -0.36751098
H      -1.99399599      1.08519644     -0.82453227
H       1.60995588      2.01376606     -0.03423683
H       2.75766296     -0.78483855      0.83536819
