14
b3lypvtz=-227002.80397949
N      -0.31149369      1.68372143     -0.53865502
C      -0.89524678      0.96357661      0.59052331
C      -0.97904245     -0.50934837      0.21138603
O      -2.02464064     -1.10480871      0.15193568
C       0.34617654     -1.22762358     -0.10239278
C       1.55247069     -0.35013560     -0.34411288
O       2.25967123      0.05676554      0.54621600
H       0.17723422      2.51934065     -0.24997263
H      -1.01234065      1.93711975     -1.22184173
H      -0.22369458      1.05648587      1.44659504
H      -1.89160310      1.29743493      0.88867150
H       0.16216889     -1.88839692     -0.95025557
H       0.55220653     -1.84693997      0.77531513
H       1.78164778     -0.12635561     -1.40085408
