17
b3lypvtz=-191983.05685424
C       2.60576452      0.37939903      0.46292851
C       1.31906155      0.23428990     -0.31338953
C       0.81147402     -1.11931964     -0.72651547
C       0.09140534     -0.32212565      0.34385622
C      -1.28181464      0.22666095      0.08294192
N      -1.57611144      1.38441376     -0.36782952
N      -2.29125561     -0.67278856      0.34453114
H       3.46946724      0.38326957     -0.20523442
H       2.73617009     -0.44557960      1.16627831
H       2.62134369      1.30938148      1.03512918
H       1.13958068      1.02263046     -1.03550178
H       0.32439352     -1.21012137     -1.68741392
H       1.36794687     -1.99442164     -0.41683178
H       0.22416874     -0.68843206      1.35705968
H      -0.73581816      1.93014426     -0.52889702
H      -3.22329528     -0.29494942      0.38431129
H      -2.09930813     -1.46381246      0.93192019
