13
b3lypvtz=-213784.51266358
C      -2.32773848      0.26459771     -0.14201163
C      -0.91970436     -0.19756462     -0.11895800
N      -0.44548867     -1.38848222     -0.20672203
C       0.93872673     -1.24998182     -0.10317670
C       1.23175052      0.06561853      0.03661770
N       2.38966414      0.82123746      0.08899997
O       0.06025152      0.76398246      0.02949667
H      -2.97535091     -0.59929687     -0.26806188
H      -2.50317414      0.96285697     -0.96296691
H      -2.59336477      0.77375017      0.78713003
H       1.60476363     -2.09366990     -0.13921396
H       2.32883355      1.60895583      0.71935278
H       3.21103123      0.26789630      0.27961394
