17
b3lypvtz=-171073.38709382
C       1.69871487      0.33068069     -0.38326561
C       0.81468890      1.27760259     -0.07753610
C      -0.39163964      0.73826663      0.63735625
C      -1.68454165      0.59114523     -0.21655311
C      -1.29288746     -0.88031408     -0.51727851
C      -0.17214967     -0.81012902      0.55966047
C       1.27159875     -1.04231241      0.08096415
H       2.63592699      0.50676887     -0.89595558
H       0.93402765      2.32889835     -0.30887393
H      -0.53162740      1.19617398      1.61917085
H      -2.58933143      0.67187677      0.38618329
H      -1.77878702      1.25880233     -1.07322024
H      -2.07060528     -1.62485083     -0.35043951
H      -0.89575863     -1.02115565     -1.52288408
H      -0.41832186     -1.36065486      1.46581045
H       1.92481748     -1.40663151      0.88142771
H       1.32217439     -1.78775608     -0.71927151
