16
b3lypvtz=-204457.281378
C       0.70291345     -1.59194726     -0.73853911
C       0.83404509     -0.43635619     -0.09138331
C       2.05982051     -0.07661524      0.70479753
C      -0.24137756      0.59537215     -0.15226365
O       0.27642263      1.81866698     -0.46619153
N      -1.48327468      0.50751607      0.06193091
C      -2.14345665     -0.71818267      0.45515454
H      -0.16991617     -1.82033521     -1.33375884
H       1.48583770     -2.33899407     -0.70825710
H       2.55566236      0.79541481      0.27660378
H       1.79654208      0.18276913      1.73325776
H       2.76399523     -0.90735225      0.72735652
H      -0.47582935      2.42879367     -0.45528774
H      -2.70245669     -1.12830472     -0.39084977
H      -2.87512575     -0.48593812      1.23091941
H      -1.47051319     -1.49655609      0.82637559
