17
b3lypvtz=-191966.67385573
C       1.76673554      1.25477791      0.20557565
C       1.15464827      0.08619646     -0.05378897
N       1.80299419     -1.15838238     -0.03465345
N      -0.19323984     -0.03894841     -0.35280858
C      -1.17780662      1.03732241     -0.17833061
C      -2.25572418     -0.03959483      0.08768962
C      -1.09217858     -1.04377836      0.26100547
H       1.21275031      2.17366316      0.30642268
H       2.84067452      1.30214608      0.30746267
H       1.57347247     -1.73801121     -0.83077959
H       2.80236991     -1.07798398      0.07432280
H      -0.97585578      1.66015430      0.70050897
H      -1.30531161      1.68217237     -1.04875880
H      -2.87140075     -0.24989696     -0.78413326
H      -2.89428966      0.11694928      0.95286819
H      -1.16457508     -1.98820653     -0.27890297
H      -0.84576311     -1.24997531      1.30712817
