16
b3lypvtz=-181100.78423225
C       1.23626927     -0.43625334      0.30246806
C       0.44188122     -1.37537884      1.14436802
C       0.77021190     -2.65496366      1.89186114
C      -0.38292191     -3.39805615      1.23355861
C      -1.01312445     -1.99434730      1.01655451
N      -1.32178725     -1.45398718      2.37301482
C       0.12295956     -1.43376650      2.59909037
H       0.71413997      0.51369926      0.16695016
H       1.43754494     -0.85424807     -0.68702480
H       2.19909674     -0.22336161      0.77205990
H       1.74497994     -3.02751640      2.17363779
H      -0.07777215     -3.85104259      0.28999633
H      -0.96425582     -4.11865542      1.81759790
H      -1.74498389     -1.81086560      0.23507669
H      -1.82915000     -2.11836292      2.95812974
H       0.59181193     -0.92129369      3.42726076
