15
b3lypvtz=-214520.77226523
C      -1.02755801      0.04247817     -0.46457171
C      -1.66376142     -1.13995925      0.23585113
O      -1.85985186     -1.18198460      1.42471700
C       0.20865374      0.56901859      0.26502591
C       1.35083566     -0.41430920      0.18618073
N       1.18307640     -1.60124083     -0.21309490
N       0.64651133      1.84233596     -0.32952947
H      -1.78477947      0.83417572     -0.49193531
H      -0.77798822     -0.21364437     -1.49311952
H      -1.98489242     -1.97217658     -0.41860447
H      -0.04876545      0.66006942      1.33063860
H       2.32120512     -0.02268939      0.51625906
H       2.04697981     -2.14008122     -0.18114625
H      -0.07565963      2.54356089     -0.20904882
H       1.46599442      2.19444668      0.15392101
