17
b3lypvtz=-217683.18358062
C      -2.72354248     -0.53524283     -0.16379458
O      -1.39210135     -0.12703558     -0.39951001
C      -0.64532300      0.04659077      0.79026415
C       0.78074536      0.47442024      0.42864479
C       0.81826640      1.81487518     -0.30945327
C       1.43841600     -0.62757278     -0.38552204
O       2.08995604     -1.51961711      0.09418166
H      -2.76193628     -1.49972659      0.35671649
H      -3.26942218      0.20520424      0.43400939
H      -3.20881182     -0.63561098     -1.13271092
H      -1.11064245      0.81457443      1.42455084
H      -0.61714914     -0.88970918      1.36255422
H       1.33627783      0.53637764      1.36740165
H       1.84320418      2.11046357     -0.53891555
H       0.25876613      1.76094960     -1.24301416
H       0.37386244      2.60114589      0.30248528
H       1.27556033     -0.57208851     -1.48068292
