17
b3lypvtz=-217677.33352315
C       2.55093927     -1.13865717     -0.00011183
C       1.96558150      0.24129764     -0.00003643
C       0.66638725      0.53385373      0.00007186
O       0.24288025      1.83116207      0.00019076
C      -0.44493760     -0.50475241      0.00016022
O      -1.69144213      0.17072125     -0.00024034
C      -2.80828707     -0.69539474     -0.00006649
H       3.18461154     -1.30340252      0.87670076
H       1.79193665     -1.92160611     -0.00012621
H       3.18457871     -1.30332052     -0.87696294
H       2.65609366      1.07652356     -0.00004828
H      -0.72453470      1.81666114      0.00010503
H      -0.37048410     -1.14861595      0.88539595
H      -0.37017583     -1.14910146     -0.88469275
H      -2.81591111     -1.33346673      0.89085737
H      -3.70066628     -0.07302102     -0.00044173
H      -2.81564002     -1.33416077     -0.89049994
