15
b3lypvtz=-191216.36633753
C      -3.26699420      0.19389769     -0.00002426
C      -2.11486950     -0.47571036      0.00001418
N      -0.89237630      0.18800325      0.00004061
C       0.18285452     -0.49353098      0.00007794
C       1.52018822      0.16992459      0.00003202
C       2.71257575     -0.74486547     -0.00001262
N       1.67011092      1.43241025      0.00001600
H      -3.27378855      1.27507544     -0.00002522
H      -4.21381387     -0.32643398     -0.00004735
H      -2.10193158     -1.56705545      0.00003257
H       0.16936660     -1.59078816      0.00003034
H       2.70196417     -1.39631236      0.87815838
H       3.62815386     -0.15963445     -0.00007247
H       2.70187292     -1.39634896     -0.87815538
H       0.74922605      1.88003593      0.00005226
