12
b3lypvtz=-252140.28822288
C      -1.41676834     -0.36563236      0.05289013
C       0.09264589     -0.51972434      0.02709522
N       0.75339390     -1.59509454      0.15012885
N       0.74199579      0.69979638     -0.26995652
C       1.80911585      0.95705602      0.32333545
F       2.48490922      2.06511456      0.03504452
O      -1.84661976      0.84110240      0.64982423
H      -1.77810729     -0.45372705     -0.98115003
H      -1.85455501     -1.17934148      0.62971587
H       0.13340940     -2.38277979      0.33521473
H       2.29665168      0.36634328      1.09463852
H      -1.41607133      1.56688690      0.18263230
