16
b3lypvtz=-202028.44896263
C      -2.33138501     -0.00252832     -0.64999343
C      -1.40107696     -0.89473703      0.16999563
C      -0.35390109     -0.12197482      0.99851752
C       0.63641395      0.64436707      0.15784543
N       0.64050888      1.88822156     -0.08848090
N       1.72794847     -0.06265017     -0.49359880
N       1.85760514     -1.23510090     -0.11264316
H      -3.06185174     -0.60182456     -1.19518102
H      -2.88481297      0.68754812     -0.00828945
H      -1.78216600      0.59247584     -1.38141925
H      -0.88752004     -1.60158285     -0.48355252
H      -1.99239269     -1.49573387      0.86471275
H      -0.86034684      0.58931622      1.65438964
H       0.18867467     -0.83052508      1.62385676
H      -0.12921833      2.34880271      0.39724815
H       2.65678856     -1.62640590     -0.63105733
