14
b3lypvtz=-227006.29563045
C      -2.47224065     -0.84591230     -0.00129819
C      -1.30637795     -0.18186651      0.00404191
O      -1.28353078      1.20970174      0.00849244
C       0.00659619     -0.77563445      0.01021039
C       1.19297738     -0.11289796     -0.00320322
N       2.41870629     -0.73719944     -0.07057743
O       1.34184728      1.22574895     -0.00008239
H      -3.42067874     -0.32540704      0.00013272
H      -2.49080948     -1.92407090     -0.00826903
H      -2.18520761      1.54419387     -0.01069365
H       0.03718620     -1.85516911      0.00936864
H       3.18483392     -0.18692225      0.28400247
H       2.43948381     -1.70151764      0.21407936
H       0.45204817      1.61983704      0.00364399
