15
b3lypvtz=-214501.48338957
C       1.65446023     -1.56001217     -0.46452782
C       1.37914183     -0.51651816      0.62916217
C       0.67775979      0.71409572      0.09877188
N       1.24386391      1.81755459     -0.20562897
C      -0.77863887      0.67110107     -0.11802897
N      -1.44788541     -0.36692889      0.19160133
O      -2.80350524     -0.20571036     -0.08165661
H       2.18462672     -2.41622432     -0.04581232
H       2.26926038     -1.13975566     -1.26181717
H       0.72532573     -1.92042155     -0.90391769
H       0.77057859     -0.96977487      1.41264468
H       2.32078968     -0.19930281      1.08210848
H       2.24680605      1.77245629     -0.01974274
H      -1.24656090      1.55685187     -0.54081680
H      -3.18465850     -1.04445577      0.19931955
