14
b3lypvtz=-203661.05577875
C       2.54611086      0.00784413      0.37285024
N       1.46346749      0.42600113     -0.50595060
C       0.30003966      0.04582566     -0.28054236
O      -0.20277179     -0.80283680      0.73090203
C      -1.50381263     -0.77948130      0.08690058
C      -2.05381239      0.59401492      0.11823355
C      -1.02247854      0.20940370     -0.94569250
H       3.33558636     -0.44283138     -0.23071215
H       2.24333919     -0.69943067      1.14842211
H       2.97405881      0.89150052      0.85042905
H      -2.03594989     -1.71346474      0.00050775
H      -3.05832751      0.71513614     -0.26700145
H      -1.78003542      1.26014370      0.92626023
H      -1.20541420      0.28817501     -2.00450649
