17
b3lypvtz=-217670.08109495
C      -0.96909673     -1.44458653      0.13481258
C      -0.48078420     -0.06001836     -0.22013300
C      -0.93274521      1.13764832      0.57591714
C      -1.41457128      0.92308852     -0.84501616
O       0.82403026     -0.01291896     -0.75290341
C       1.86672002     -0.29269492      0.16810400
O       3.07466355      0.13554522     -0.37591912
H      -0.38686748     -1.88213983      0.94863022
H      -2.01109955     -1.41619404      0.45387190
H      -0.89325489     -2.10334241     -0.73238229
H      -0.21498528      1.93027821      0.73508843
H      -1.63028176      0.98913300      1.38910572
H      -2.44155282      0.62418822     -1.00411539
H      -1.00146665      1.56538635     -1.60937510
H       1.97509740     -1.36864473      0.32848723
H       1.64013796      0.19985053      1.12441234
H       2.99605666      1.07542142     -0.57341848
