17
b3lypvtz=-215266.55077145
C      -1.81609859      0.06999563     -0.59614255
C      -0.51947741     -0.21262097      0.11183509
C       0.69994856     -0.72005702     -0.64540900
C       0.67264497      0.68588432     -0.10884962
N       1.51102307      0.96721420      1.03199113
N       1.64388442     -1.65395731     -0.09562212
O      -2.52349519      1.19994379     -0.07708758
H      -2.45594500     -0.82094719     -0.58166433
H      -1.62653648      0.31165878     -1.64330824
H      -0.60811503     -0.59967024      1.12233528
H       0.57844100     -0.81305641     -1.71901730
H       0.53108082      1.47812577     -0.83964182
H       2.41209137      1.32552808      0.73829560
H       1.08560320      1.66528086      1.62961582
H       1.94007756     -1.32718095      0.81728229
H       1.23105330     -2.57169254      0.01753541
H      -2.75618054      1.01555115      0.83785195
