21
b3lypvtz=-195912.4535405
C      -1.78274349      1.04598529     -0.01179603
C      -0.84829565     -0.07300988     -0.46578577
O      -1.41075375     -1.34669982     -0.12596054
C       0.63161789      0.04585535      0.00472271
C       1.22257279      1.38471047     -0.46664454
C       1.43198826     -1.10048784     -0.63630011
C       0.74515439     -0.05554057      1.53418142
H      -2.78318690      0.85568143     -0.40046170
H      -1.46009839      2.02189813     -0.37306699
H      -1.84984658      1.09749647      1.07771325
H      -0.82952325     -0.07838005     -1.55923387
H      -1.64660388     -1.33559868      0.80701087
H       2.29611084      1.41329257     -0.27031983
H       0.77359196      2.23697219      0.04457286
H       1.08167537      1.52307082     -1.54149047
H       1.41617565     -1.02597042     -1.72621395
H       1.01640857     -2.06900640     -0.36255863
H       2.47520234     -1.06709542     -0.31569506
H       1.79136190      0.00566759      1.83949917
H       0.21161888      0.74993245      2.04160355
H       0.35967406     -1.00879369      1.90165066
