16
b3lypvtz=-181103.54314667
C       0.73903650     -1.31070299     -0.34636343
C       1.18078897     -0.10095025      0.51488311
C       0.90600765      1.26176557     -0.16908106
C      -0.60120329      1.10461295      0.12486958
C      -0.27108700     -0.04893436      1.12702749
C      -0.73793888     -1.00264382     -0.02037071
N      -1.23129708      0.14904562     -0.84141363
H       1.01919542     -1.32587081     -1.40014818
H       1.04590814     -2.24631818      0.12517317
H       2.09320616     -0.20034320      1.09829075
H       1.32621076      2.07698869      0.42313745
H       1.19545365      1.38435316     -1.21330706
H      -1.18506923      1.99627357      0.34511178
H      -0.53842478     -0.10399672      2.17857698
H      -1.43346636     -1.83355217      0.08092952
H      -2.23992065      0.20817294     -0.74881576
