11
b3lypvtz=-236329.54492288
C       2.26492548     -0.46737360     -0.22265958
N       1.44383747      0.20719601      0.45097030
C       0.19970976      0.62550887      0.04545835
O      -0.08994484      1.76917247     -0.22867667
C      -0.87752792     -0.49743659      0.04331075
N      -2.12555074      0.01106478      0.04112051
O      -0.58148910     -1.67425920      0.00695586
H       3.19510583     -0.78410924      0.24259636
H       2.10243513     -0.74794942     -1.26429028
H      -2.24400105      1.00598759     -0.05442215
H      -2.91026102     -0.60834565     -0.06329945
