11
b3lypvtz=-212993.36257431
C      -1.35938806      0.42354829     -0.39516530
C      -0.85670858     -0.21350292      0.86608849
N      -0.17207837     -0.39758557     -0.40226850
C       1.08151169      0.05466476     -0.73289061
O       1.34849235      0.80011946     -1.64364008
C       2.14142142     -0.53878590      0.10502386
N       2.98829703     -0.95587334      0.76277998
H      -1.21578002      1.48893954     -0.52452478
H      -2.22090771      0.00299809     -0.89670378
H      -1.35140485     -1.09084744      1.26062300
H      -0.38345489      0.42632504      1.60067773
