19
b3lypvtz=-195153.06573431
C       2.86313656     -0.40275030     -0.44325422
C       1.58942520     -0.67698751      0.35678016
C       0.35086861      0.10528165     -0.11340559
C       0.52378253      1.61910923      0.05448256
C      -0.90170665     -0.42058924      0.62970716
C      -2.19808255      0.09850342      0.06504654
O      -2.98394879     -0.57470394     -0.55349509
H       3.20389648      0.62765543     -0.33745542
H       2.70823403     -0.59494280     -1.50741646
H       3.67528915     -1.04889706     -0.10695242
H       1.76554894     -0.45809856      1.41559119
H       1.36315134     -1.74517481      0.30146532
H       0.21093494     -0.10986785     -1.17869608
H       0.65862012      1.87840902      1.10814977
H       1.39480619      1.98166567     -0.49065751
H      -0.33869243      2.17362071     -0.31634346
H      -0.93487140     -1.50945410      0.57939628
H      -0.83835830     -0.12258766      1.68292756
H      -2.41011998      1.17368770      0.24028970
