10
b3lypvtz=-202149.69136075
N      -3.28588712      0.14464153      0.35664581
C      -2.36950619     -0.04985962     -0.30845702
C      -1.21459284     -0.30415752     -1.17534627
C       0.06742656     -0.07455431     -0.51994141
C       1.14285702      0.10475296     -0.01280469
C       2.41093253      0.33441912      0.64161704
O       3.48147976      0.18196904      0.10507805
H      -1.26644181     -1.33703381     -1.53294268
H      -1.29520294      0.33304545     -2.06125669
H       2.32893502      0.66687716      1.69120785
