15
b3lypvtz=-193567.25056145
C       1.18104901     -0.01931504      0.05169269
C       0.48036317      0.93051632     -0.90176231
C       0.76146098      2.43500370     -0.86400018
C      -0.68172478      2.76089674     -1.22953180
C      -0.99221571      1.34616248     -0.62105753
O      -0.95641131      1.89759887      0.73150471
C      -0.23272753      2.99455220      0.16565638
H       0.78908492     -1.03446687     -0.04758439
H       1.04349050      0.29981110      1.08403341
H       2.25246295     -0.05787485     -0.15686513
H       0.54965254      0.58419089     -1.93544375
H       1.65866636      2.96465707     -1.15098930
H      -1.13028855      3.38144869     -1.98952162
H      -1.84150512      0.69517549     -0.79982502
H      -0.08845743      3.89214320      0.74669385
