12
b3lypvtz=-207878.0605388
C       0.59205007      2.42847479     -0.48753673
C       0.30010856      1.36086003     -0.02904693
C      -0.10282689      0.05917739      0.51254581
C      -1.40540706     -0.39897935     -0.17382588
F      -1.88553469     -1.53519092      0.45586463
C       0.96016518     -0.94295831      0.39117841
C       1.81714951     -1.77324435      0.28909593
H       0.86438962      3.37289635     -0.88847681
H      -0.33631518      0.18467041      1.57601899
H      -2.15815099      0.38521010     -0.09012261
H      -1.22421046     -0.63352899     -1.22257101
H       2.57858231     -2.50738714      0.20062688
