16
b3lypvtz=-227757.84633904
C      -2.95840305      0.31403650      0.11396659
C      -1.59949754     -0.19486378      0.54512558
O      -0.80906089     -0.41868199     -0.62651041
C       0.48659597     -0.88805946     -0.36621937
C       1.48245512      0.22226286     -0.04685920
N       1.31043816      1.45732232     -0.20743051
O       2.68152682     -0.21731797      0.42516552
H      -3.59460998      0.46967576      0.98656709
H      -3.44587941     -0.40357617     -0.54639871
H      -2.86669622      1.26195608     -0.41683331
H      -1.10279730      0.52784480      1.20127175
H      -1.69502020     -1.13876414      1.09674243
H       0.48406724     -1.62145837      0.45416982
H       0.82916852     -1.40683327     -1.26635771
H       0.38423537      1.61949112     -0.59635209
H       2.66165239     -1.17219328      0.55062553
