18
b3lypvtz=-181911.05791119
C      -2.51256705     -1.16195854     -0.04642916
C      -1.20590264     -0.89057079     -0.05868139
C      -0.61372435      0.44581302      0.03263376
N      -1.52739302      1.51308413     -0.05845658
C       0.69963809      0.66071978      0.24880980
C       1.77476640     -0.34495582      0.53091503
C       2.92694675     -0.28676650     -0.48224298
H      -2.86964360     -2.17812186     -0.14275504
H      -3.25993807     -0.39159592      0.08805920
H      -0.50867218     -1.71071768     -0.16366768
H      -2.19840070      1.40498374     -0.80659249
H      -1.08134339      2.41699462     -0.11106942
H       1.03383672      1.69634549      0.25623218
H       2.18400551     -0.15758118      1.53089170
H       1.37065427     -1.35661383      0.56549736
H       2.57638270     -0.53072166     -1.48637999
H       3.36664325      0.71213936     -0.51971838
H       3.71941431     -0.98931336     -0.21733092
