15
b3lypvtz=-214509.88890407
C       1.16917055      1.77083762     -0.03855778
C       0.63537486      0.34333818     -0.27150337
C       1.58239785     -0.64649148      0.38418042
O       2.29675983     -1.41083541     -0.20824920
C      -0.75035158      0.17408905      0.28796400
N      -1.70698003     -0.21841436     -0.45116807
N      -2.96679078     -0.28000862      0.07556443
H       0.50690993      2.49831026     -0.50763928
H       1.22563736      2.00521830      1.02710525
H       2.16661356      1.88564630     -0.46410835
H       0.60857917      0.11708666     -1.33655004
H       1.59154566     -0.61276078      1.49694664
H      -0.90578614      0.41361374      1.34766195
H      -3.53079701     -0.94116280     -0.43462356
H      -3.01560222     -0.42424767      1.08085498
