13
b3lypvtz=-211349.71707587
C      -3.40046164     -0.19568867      0.00001067
N      -2.30673198      0.45032899      0.00000581
N      -1.17754542     -0.37469172      0.00000657
C      -0.10150232      0.31527950     -0.00000055
N       1.12171677     -0.29536099      0.00000484
C       2.33604885      0.37314350     -0.00000455
N       3.50011620     -0.12481259     -0.00000448
H      -3.43641352     -1.28426023     -0.00005149
H      -4.32295342      0.37222357     -0.00006223
H      -0.10023591      1.40340316      0.00000130
H       1.11888504     -1.30631099      0.00000813
H       2.22104812      1.45576417     -0.00001330
H       3.48911725     -1.14572370      0.00000429
