14
b3lypvtz=-203676.73521365
C      -1.48924847     -0.66074166     -0.22205573
C      -0.09849068     -0.88959393      0.36997652
C       0.48496262      0.52353786      0.58545274
C       1.62551023      0.04239542     -0.33668169
O       0.91258994     -1.18072066     -0.63085996
C      -0.56100012      1.37499773     -0.08558409
N      -1.59127868      0.77906186     -0.52530817
H      -2.29305136     -0.93203327      0.46758379
H      -1.62757245     -1.24175856     -1.13557179
H      -0.06237820     -1.60645749      1.19144494
H       0.76495357      0.86458815      1.58074885
H       2.56647379     -0.15611079      0.18334325
H       1.82045035      0.63296241     -1.23430717
H      -0.45192053      2.44987294     -0.20818148
