19
b3lypvtz=-195140.67417295
C      -1.52300515      1.89676783     -0.12500819
C      -1.39868345      0.67811145      0.38155124
C      -0.66414023     -0.45383426     -0.27263352
O      -1.60624366     -1.53014026     -0.38766876
C       0.55823232     -0.90636032      0.54284904
C       1.70050077      0.10892841      0.66213512
C       2.42964854      0.40238369     -0.65078911
H      -1.10176088      2.15747751     -1.08887954
H      -2.05345509      2.67917925      0.40166731
H      -1.84564903      0.43663012      1.34167029
H      -0.34506727     -0.13778883     -1.27243897
H      -1.13112750     -2.31703336     -0.67353320
H       0.94646888     -1.82301247      0.08129638
H       0.20583093     -1.18739312      1.53902704
H       2.42127205     -0.27668169      1.38768404
H       1.31463993      1.04034867      1.08332550
H       1.77723672      0.87754038     -1.38457563
H       3.27486601      1.07227961     -0.48558250
H       2.81864213     -0.51527861     -1.09900554
