12
b3lypvtz=-207903.38432995
C       1.90533852     -1.80256097      0.00000671
C       1.41217191     -0.70692917     -0.00000475
C       0.80323226      0.58886696     -0.00000294
C       1.56647716      1.69520760     -0.00000367
C      -0.65769037      0.67294765      0.00000013
C      -1.46551547     -0.37997400     -0.00000097
F      -2.80112171     -0.23286214      0.00000258
H       2.35505635     -2.76417354      0.00001004
H       2.64431686      1.63405859     -0.00000673
H       1.11657732      2.67860489     -0.00000175
H      -1.09591501      1.66318858      0.00000345
H      -1.15866782     -1.41613545     -0.00000311
