20
b3lypvtz=-182676.19610752
C      -1.58645856     -0.57085808      1.25079227
C      -0.86456743     -0.01831980      0.00373304
C      -1.54706887     -0.59290625     -1.25602283
C      -0.99536946      1.51044334     -0.01174725
C       0.57787275     -0.47960714      0.03299031
C       1.67195467      0.28273040      0.00157508
N       2.99073911     -0.17496928     -0.07988304
H      -1.14734301     -0.16830527      2.16506681
H      -2.64734699     -0.30910670      1.23635380
H      -1.51169240     -1.65956625      1.29532400
H      -1.07855144     -0.20668245     -2.16251249
H      -1.47181924     -1.68216990     -1.27907262
H      -2.60776439     -0.33019775     -1.27950720
H      -0.52353331      1.94466823     -0.89506055
H      -2.04859384      1.79718500     -0.02526140
H      -0.54126014      1.96003630      0.87339468
H       0.70900982     -1.56034375      0.06367836
H       1.59629248      1.36278180     -0.03171035
H       3.66438423      0.40162147      0.40012634
H       3.11246502     -1.14899492      0.15613805
