16
b3lypvtz=-204438.57044484
C       1.68496601      0.48047022     -0.08055268
C       0.39973796     -0.25549924     -0.39791095
C       0.04021929     -1.44717261      0.55639082
N      -1.24466123     -0.77223179      0.82116040
C      -0.90032277      0.38345588      0.11061295
C      -1.48213479      1.56669053     -0.06384474
O       0.43056052     -0.56594789     -1.78095961
H       1.73722191      1.40395115     -0.65716065
H       1.74462675      0.72729257      0.97867476
H       2.54112798     -0.14114639     -0.34855730
H       0.70028744     -1.53899823      1.42227320
H      -0.05953084     -2.41605017      0.06513216
H      -1.69392500     -0.75547681      1.72376744
H      -1.01880085      2.30712452     -0.69909010
H      -2.41907574      1.82321741      0.41220941
H      -0.46029666     -0.79967915     -2.06214510
