13
b3lypvtz=-242056.64472457
O       2.81137841     -0.69704337     -0.03837667
C       2.20220372      0.52725706     -0.17057206
C       0.89715474      0.80557725     -0.14578688
N      -0.15330635     -0.09438351      0.02139867
C      -1.48211334      0.26573728      0.03968238
C      -2.49982532     -0.57694324      0.19784719
F      -2.25805767     -1.91061753      0.35790090
H       2.16540594     -1.39819509      0.08510278
H       2.92497746      1.31532854     -0.30813699
H       0.59531547      1.83538074     -0.26647180
H       0.03545818     -1.07492758      0.13864951
H      -1.69513221      1.31761285     -0.08546698
H      -3.54345903     -0.31468340      0.21492996
