15
b3lypvtz=-191205.35354626
C       0.59495814     -1.03414455      0.03211143
C       1.91657136     -0.22173439      0.05778770
N       1.56299071      1.21008301      0.07494573
C       0.30145866      1.32085364      0.01960652
C      -0.47043833      0.05327454     -0.06374681
C      -1.87028645     -0.04285152      0.41806407
N      -1.58720002     -0.08038171     -1.02055813
H       0.53048773     -1.70823227     -0.82025774
H       0.47390738     -1.62707662      0.93865859
H       2.52621403     -0.43856841      0.93621274
H       2.54773060     -0.40612132     -0.81385198
H      -0.18000505      2.29745784      0.01281984
H      -2.21435363     -0.98032535      0.83848126
H      -2.33311247      0.84230326      0.84096594
H      -1.79892268      0.81546383     -1.45123917
