14
b3lypvtz=-226989.33022784
C       1.23923877      0.43953891     -0.07963430
C       0.84975590     -0.81015088      0.70057159
O      -0.29125544     -1.52759593      0.20461238
C      -1.17007717     -0.80921577     -0.58516368
O      -1.71900071      0.35310942      0.05361000
C      -0.92172988      1.45974664      0.10815945
N       0.32796606      1.57761094      0.02473039
H       2.20053393      0.76961377      0.32090425
H       1.42576963      0.20537787     -1.13159290
H       0.65258785     -0.53475466      1.74064158
H       1.68049817     -1.51789140      0.69142416
H      -0.71721672     -0.48731059     -1.52821985
H      -2.01863429     -1.45919113     -0.78039984
H      -1.53843611      2.34111281      0.26035675
