14
b3lypvtz=-226997.18578676617
C      -2.12438774      0.09963320      0.10908553
N      -1.14852107     -0.97877299      0.06258681
H      -1.48861800     -1.88926223      0.31595704
H       1.13535499      2.16425832     -0.29402497
C       0.19892148     -0.84514535      0.05638137
C       0.97375882      0.25413027     -0.11984161
O       0.42850141      1.51135406     -0.34371027
C       2.41715380      0.12290487     -0.10589265
O       3.06448350     -0.89388962      0.06473239
H      -3.10287085     -0.30884487     -0.13867075
H      -1.87150342      0.86922808     -0.61319874
H      -2.18017149      0.56402539      1.09821453
H       0.75534623     -1.76480842      0.18129491
H       2.94255236      1.09518928     -0.27291360
