15
b3lypvtz=-191193.84207949
C      -2.19431958      0.35288250      0.05335915
C      -0.78192567     -0.02437685     -0.29863617
C       0.07077474     -0.73694864      0.65825953
C       1.44085814     -1.05669573      0.06577976
C       1.53218685      0.43434978     -0.21420596
N       2.42436314      1.15944538     -0.71140720
N       0.26720689      0.77076162      0.41937495
H      -2.88293982     -0.44809883     -0.22317445
H      -2.28952353      0.54093330      1.12251255
H      -2.49345381      1.25807192     -0.47665913
H      -0.60320627     -0.20085051     -1.35592156
H      -0.29510569     -1.08730348      1.61340708
H       1.47175869     -1.73489595     -0.78699612
H       2.17957137     -1.37067985      0.80220945
H       2.15375454      2.14350535     -0.66780188
