16
b3lypvtz=-227774.36942278
C      -2.75717972      0.62692352      0.46874242
N      -2.01526432     -0.14057168     -0.52047975
C      -0.78596860     -0.70660618     -0.08802153
O       0.25076765      0.30864210     -0.23697414
C       1.50549033     -0.08567321      0.04525206
C       2.48282105      1.05027210     -0.11641760
O       1.79553551     -1.20921999      0.37951405
H      -3.69546950      0.96874529      0.03343994
H      -2.98377086      0.06196366      1.38485254
H      -2.18462754      1.51095887      0.75068115
H      -2.58683889     -0.81867893     -0.99819565
H      -0.77404560     -1.01244015      0.96483592
H      -0.52127825     -1.56400920     -0.70412405
H       2.22907787      1.85920519      0.56965314
H       2.42478406      1.45249471     -1.12799792
H       3.48844480      0.69476190      0.08688341
