12
b3lypvtz=-249554.76650362
O       1.20214636      0.85368945     -1.69133178
C       1.64829842      0.12242939     -0.82841902
N       1.18801335      0.01348460      0.46574125
C      -0.03240116      0.00231466      0.82722864
O      -0.33523577      0.14923761      2.12452680
C      -1.29214557     -0.18281059      0.00538984
O      -1.10233942     -0.66582326     -1.29068457
H       2.55773820     -0.47157483     -0.99753823
H       0.49253927      0.30924812      2.60245944
H      -1.81752744      0.78194093      0.03441723
H      -1.92442096     -0.89694647      0.53519267
H      -0.58456528     -0.01508961     -1.78688226
