15
b3lypvtz=-216930.57132053
C       3.03120927     -0.57752158      0.00733285
C       1.77499852      0.22169856     -0.04100964
C       0.53994093     -0.26180586      0.11265909
C      -0.64397897      0.62493481      0.05601983
O      -0.57478413      1.83313157     -0.06662319
C      -2.02429866     -0.02384760      0.19202882
O      -2.08460026     -1.41295798     -0.09496065
H       3.58671927     -0.47745401     -0.92978173
H       2.84018810     -1.63492833      0.18750231
H       3.69289946     -0.20372515      0.79415543
H       1.87306591      1.28959659     -0.21484034
H       0.36360593     -1.31617685      0.28235088
H      -2.32982075      0.08700158      1.23573030
H      -2.72363140      0.55987143     -0.41252057
H      -2.01292921     -1.53568516     -1.04620539
