16
b3lypvtz=-204437.13430783
C      -2.14671197      0.80512010      0.19593423
C      -0.86148841      0.34495041     -0.45740078
C      -0.36075422     -1.10574113     -0.18315344
C       0.94412864     -0.45474788      0.21496017
C       2.17057631     -0.86084694      0.51677369
O       3.20349576     -0.01270823      0.86687857
N       0.38794215      0.86070531      0.18668247
H      -3.00767812      0.29918725     -0.24734208
H      -2.12994188      0.59201586      1.26568221
H      -2.28614558      1.88049881      0.06760517
H      -0.88165439      0.55711019     -1.53005193
H      -0.33226328     -1.77128346     -1.04421310
H      -0.89083868     -1.59985131      0.63245404
H       2.46079782     -1.90071550      0.49892785
H       2.82531750      0.79484441      1.23366660
H       0.90521835      1.57146213     -0.31828804
