16
b3lypvtz=-232748.44503578
O      -2.88455327      0.11781674     -0.17283982
C      -1.63111957     -0.15732153     -0.79287009
C      -0.47856968     -0.20572672      0.17830431
C       0.12514441      1.06346541      0.70602367
C       0.90014290      0.22002428     -0.26984730
C       2.09251495     -0.55730128      0.18754112
F       3.22445386      0.26380451      0.24365087
H      -3.09657201     -0.60436904      0.42620519
H      -1.47832339      0.65331320     -1.50707253
H      -1.67999136     -1.09187919     -1.36553100
H      -0.51148869     -1.04250249      0.86985159
H      -0.28633465      1.99896032      0.35288489
H       0.46288521      1.08428660      1.73335651
H       0.97819373      0.59882154     -1.28228227
H       2.32725230     -1.37616242     -0.49677437
H       1.93646525     -0.96522992      1.18939922
