17
b3lypvtz=-217626.4854766637
C       3.09622202     -0.28724448      0.73572446
O       2.41766908      0.02039483     -0.32340741
C       1.43751708      1.09925763     -0.20197992
C       0.06016298      0.59325752     -0.57993661
C      -0.51906603     -0.43168059      0.39691870
C      -1.92856916     -0.86534385      0.03297500
O      -2.78068129      0.27854463      0.09336901
H       3.74717991     -1.11745642      0.37098736
H       1.49355332      1.46324276      0.82388064
H       1.77476423      1.87238192     -0.89204265
H      -0.60562673      1.45709873     -0.63038336
H       0.10042883      0.17068686     -1.58832524
H       0.11446214     -1.32092437      0.43254354
H      -0.53250423     -0.01262325      1.40657753
H      -1.93768632     -1.30127523     -0.97451623
H      -2.26750231     -1.63662030      0.73390508
H      -3.67032354      0.01830363     -0.15980094
