12
b3lypvtz=-226230.33784675
N      -2.64388057     -0.05654315     -0.56729313
C      -1.64234798     -0.05298160     -0.00212957
C      -0.37259231     -0.02627261      0.74568773
C       0.50772520      1.18284245      0.37903747
O       1.26582374      0.67962008     -0.70755457
C       1.53887435     -0.65990004     -0.38749601
O       0.44411139     -1.13876680      0.40476267
H      -0.60129620     -0.06367070      1.81197974
H      -0.04659228      2.05569833      0.04677680
H       1.14873534      1.44368828      1.22863331
H       2.45637287     -0.75267123      0.20695367
H       1.61155946     -1.23335501     -1.31084011
