14
b3lypvtz=-203698.39671519
N      -1.46742453      1.42426553     -0.01001773
C      -0.37056256      0.79560463      0.11329521
C       1.02995836      1.20366406     -0.03553410
C       1.81226297      0.12101251     -0.11366695
C       1.03736749     -1.16738881     -0.02399453
C      -0.36973459     -0.70488444      0.39519065
O      -1.40655155     -1.38400745     -0.27553315
H      -1.32703623      2.41127900     -0.22077873
H       1.35452966      2.23178109     -0.11820025
H       2.88508063      0.14513053     -0.25360508
H       1.48458220     -1.87984865      0.67086408
H       0.98444357     -1.66012377     -0.99900124
H      -0.47371360     -0.83009129      1.48280721
H      -2.13081580     -0.74670595     -0.35768439
