15
b3lypvtz=-191212.23877474
C       2.07641947      0.56258699     -0.09082615
N       1.15989927     -0.57421149     -0.05625283
C      -0.13821502     -0.26704566      0.45646985
C      -1.25464953     -1.20610929      0.14953522
C      -1.19465787      0.13249747     -0.56681993
C      -2.14550756      1.15659985     -0.25168699
N      -2.90549712      1.98225185      0.01061171
H       1.69817610      1.31407017     -0.78513697
H       3.04803264      0.23059836     -0.45520178
H       2.21816878      1.04822333      0.88485857
H       1.56468073     -1.34230222      0.46468518
H      -0.20285766      0.26823681      1.40388483
H      -2.03039131     -1.34212828      0.88821733
H      -1.02322214     -2.07137378     -0.45445603
H      -0.87037879      0.10810587     -1.59788201
