14
b3lypvtz=-203646.17105323
C      -2.95385753     -0.92806755     -1.05414502
C      -1.76410055     -0.22306772     -0.59755336
C      -0.78532065      0.36573910     -0.22600751
C       0.41665530      1.06365903      0.22801292
C       1.64057479      0.18977603      0.18360283
N       2.66191395      0.58226147     -0.45355023
O       3.71070776     -0.34949206     -0.37282071
H      -3.71082696     -0.97548166     -0.26878533
H      -3.39853066     -0.42911306     -1.91750487
H      -2.71382709     -1.95163877     -1.34864662
H       0.26488646      1.40859767      1.25740579
H       0.60263291      1.95126439     -0.37970263
H       1.62805120     -0.76846480      0.70039969
H       4.40104107      0.06412793     -0.90070492
