14
b3lypvtz=-180388.93806237
C       2.83678007     -0.87285087     -0.30112524
C       1.97242051     -0.19369873      0.44101071
C       1.22544313      1.02565632     -0.01153721
C      -0.26961120      0.89311296     -0.06323149
C      -0.95072939     -0.24978461      0.05062290
C      -2.37151964     -0.30797963     -0.01753593
N      -3.52184713     -0.37953080     -0.06864617
H       3.35775639     -1.73844331      0.08573477
H       3.06008327     -0.58476022     -1.32176847
H       1.77719832     -0.51779733      1.45908258
H       1.45793567      1.86550163      0.65470700
H       1.57746496      1.33810033     -1.00109082
H      -0.82083576      1.81443111     -0.21676751
H      -0.44069421     -1.19461385      0.19325988
