14
b3lypvtz=-180381.58478713
C      -2.23809477     -0.12945368     -0.43170016
C      -0.93395596     -0.07199843     -0.22837346
C       0.07452022     -1.02512230      0.38714462
C       1.03686289      0.19828887      0.56609557
C       0.10562649      1.02288201     -0.38672398
C       2.42455550      0.03103971      0.17960127
N       3.51934587     -0.10960588     -0.14848173
H      -2.78325237      0.70977777     -0.84511777
H      -2.80870569     -1.01782827     -0.19163722
H       0.46805630     -1.74713962     -0.32972465
H      -0.21228994     -1.55009466      1.29679127
H       0.99421007      0.58366123      1.58410230
H      -0.15790780      2.02546382     -0.05409873
H       0.51102920      1.08012944     -1.39787732
