19
b3lypvtz=-195141.46421993
C       2.29870039     -0.75579741      0.50014854
C       1.12443172     -0.90927721     -0.09595081
C       0.29903797      0.19153892     -0.69690126
O       0.99789625      1.42375973     -0.53758326
C      -1.13824512      0.28420230     -0.11966183
C      -1.14945387      0.56321191      1.38423268
C      -1.98352033     -0.94087972     -0.47950162
H       2.83620518     -1.60571445      0.89949698
H       2.75487727      0.21876550      0.60062690
H       0.69781362     -1.90173350     -0.19200901
H       0.19480917     -0.03005539     -1.77047576
H       0.49097024      2.11572536     -0.97198068
H      -1.59070132      1.14732073     -0.62549627
H      -2.16509898      0.76289023      1.73060416
H      -0.52941136      1.42571915      1.62681868
H      -0.76566503     -0.29048015      1.94543099
H      -1.95658861     -1.14928795     -1.55149563
H      -1.64014346     -1.83398608      0.04551591
H      -3.02589874     -0.78119097     -0.19937470
