15
b3lypvtz=-170280.53448977
C       3.72998097      0.00038963      0.14576053
C       2.53087848      0.00013387      0.02067416
C       1.17460002     -0.00000013     -0.12112092
C      -0.02688110     -0.00001201     -0.25100972
C      -1.48001240     -0.00014747     -0.39113250
C      -2.09611834     -1.27359056      0.21718553
C      -2.09641253      1.27291513      0.21768369
H       4.78529783      0.00046094      0.25645551
H      -1.70084890      0.00003751     -1.46443641
H      -1.90734986     -1.31618738      1.29046042
H      -1.67623126     -2.17015634     -0.23735275
H      -3.17535657     -1.27802710      0.05754181
H      -1.67676161      2.16975629     -0.23653181
H      -3.17565712      1.27714590      0.05807969
H      -1.90762062      1.31515673      1.29096876
