16
b3lypvtz=-227737.90629052
C       1.77960490      0.38962771     -0.12404358
C       0.43003157     -0.19719433      0.19931655
C      -0.73603626      0.02733786     -0.74493447
C      -0.71869952      0.67884514      0.61748422
O      -1.63179952      0.22630144      1.56754827
N      -1.69350083     -1.04615183     -0.88203590
O       2.51643607      0.79237729      1.02714023
H       1.66156399      1.29633399     -0.71991898
H       2.36247681     -0.31848006     -0.72772606
H       0.44375342     -1.17265742      0.67675602
H      -0.54334709      0.65232670     -1.61269360
H      -0.54597711      1.74478071      0.68788246
H      -2.07135789     -0.53770817      1.16056671
H      -1.30386002     -1.84372217     -1.36858426
H      -2.51291672     -0.74135057     -1.39307434
H       2.56362822      0.04933370      1.63631675
