17
b3lypvtz=-217679.15098511
C       3.31462329     -0.24388846      0.13365841
C       2.18334151      0.17575126     -0.41558240
C       0.91984503      0.43189908      0.34198255
O      -0.14414583     -0.26260187     -0.29994438
C      -1.41766650     -0.10928987      0.31558768
C      -2.13526555      1.14692865     -0.13702823
O      -2.20002560     -1.20536453     -0.06505977
H       4.21220005     -0.38404478     -0.45418792
H       3.38704511     -0.45818461      1.19377188
H       2.13184481      0.37354899     -1.48124731
H       0.71297151      1.51096983      0.35365934
H       1.02099509      0.10374557      1.38444705
H      -1.26610147     -0.09815900      1.40732504
H      -3.11485441      1.21035916      0.33649705
H      -2.26409037      1.11465718     -1.21847636
H      -1.56574338      2.03744751      0.12945087
H      -1.68088429     -2.00221411      0.09086351
