17
b3lypvtz=-191967.87281925
C      -3.16250759      0.27034228     -0.16929996
N      -1.72607449      0.19799581     -0.35412641
C      -0.94827603     -0.66421541      0.38392570
N       0.31190613     -0.67619086      0.56278321
C       1.14765042      0.33549651      0.01426684
C       2.46451841      0.57684588      0.71119884
C       2.44363272     -0.11361498     -0.62200634
H      -3.46306978      0.93401445      0.64945918
H      -3.64031434      0.61625164     -1.08605168
H      -3.54672032     -0.72642804      0.04717702
H      -1.28184085      1.02628238     -0.71204514
H      -1.52945726     -1.46531018      0.83962276
H       0.69516730      1.21957512     -0.43201478
H       2.65058940     -0.02875634      1.58626177
H       2.83560292      1.59114449      0.76386196
H       2.79742651      0.42277773     -1.49181417
H       2.61716685     -1.17965347     -0.63743880
