14
b3lypvtz=-227009.37360207
C      -3.16263439     -0.01014449      0.16904123
N      -2.15670238     -0.30004547     -0.53275347
C      -0.92144008      0.42910732     -0.29987354
C       0.22163188     -0.55776237     -0.07819229
C       1.57597079      0.11877763      0.00073489
O       1.76966787      1.28911873     -0.16532418
O       2.62009278     -0.70901957      0.27773843
H      -4.09901297     -0.53873573      0.00431200
H      -3.15344296      0.76092775      0.94984830
H      -0.70258691      1.01823729     -1.19232574
H      -0.99163147      1.12726612      0.54373736
H       0.05583390     -1.13153457      0.83885095
H       0.23710460     -1.28436555     -0.89591803
H       2.31320534     -1.61768809      0.38053610
