14
b3lypvtz=-224609.2664306
C       2.59189299     -0.21519118      0.06876358
N       1.20130316     -0.61897244      0.02384434
C       0.18741071      0.28575032     -0.04248918
N       0.27269019      1.55911304     -0.15050820
C      -1.22954778     -0.27069930     -0.00325331
N      -1.58930637     -1.48039045     -0.11166389
O      -2.13863075      0.69479094      0.15958814
H       3.21610602     -1.10441274      0.11556664
H       2.85809427      0.33651929     -0.83476425
H       2.81561936      0.41406295      0.93690517
H       0.97289721     -1.52598850      0.39230798
H       1.22225956      1.91772971     -0.15263764
H      -0.80203942     -2.09601757     -0.28670871
H      -1.63344513      1.53344293      0.13435332
