17
b3lypvtz=-171073.70617611
C       2.30211826     -0.40630111     -0.11406796
C       1.01198665     -0.11331022      0.01722808
C       0.43792019      1.23185063      0.42474520
C      -0.93153834      1.31125408     -0.29014362
C      -1.35327774     -0.13708001     -0.49481590
C      -1.27517838     -1.05547205      0.68407863
C      -0.12384878     -1.01156260     -0.30546605
H       2.63134652     -1.39200411     -0.41752875
H       3.07213662      0.33015329      0.07689152
H       1.09981496      2.05753377      0.16723128
H       0.30314922      1.26353337      1.50931618
H      -1.66359476      1.89267948      0.27394863
H      -0.81665371      1.78948974     -1.26549795
H      -2.06939015     -0.36245214     -1.27319463
H      -1.88773084     -1.94613769      0.66070437
H      -1.13026571     -0.64463855      1.67464511
H       0.05519898     -1.88565388     -0.91554716
