15
b3lypvtz=-216921.21020322
C      -0.88612988      1.72858745     -0.26324183
C      -0.40240413      0.49795742     -0.13165542
C       0.85700216      0.05789374     -0.82638280
C       2.02274670     -0.30733725      0.06377120
O       2.02830498     -0.29582235      1.26749662
C      -1.08924707     -0.52699184      0.73007476
O      -1.23912439     -1.73992104     -0.01780110
H      -1.80894741      2.02670468      0.21795740
H      -0.37600013      2.48277100     -0.84905143
H       0.65941983     -0.82938342     -1.44003740
H       1.21447606      0.82495225     -1.52091983
H       2.93281318     -0.60851335     -0.49846200
H      -2.06348150     -0.14388169      1.04890708
H      -0.47700357     -0.70362756      1.61927901
H      -1.37242480     -2.46338807      0.60006575
