13
b3lypvtz=-237037.76288945
C       2.79155653      0.61006007     -0.10280367
N       1.66303052      0.65328472      0.46583991
O       0.67479790      0.07363249     -0.35444861
C      -0.57864052      0.09316064      0.21698493
N      -0.92675788      0.54644336      1.33459474
C      -1.57835287     -0.54070547     -0.71722865
O      -2.86822467     -0.53294828     -0.16668687
H       2.94557867      0.17886382     -1.08800125
H       3.62166222      1.03245433      0.44772247
H      -0.15269518      0.94400394      1.85895311
H      -1.25121874     -1.56555878     -0.92989474
H      -1.55715440      0.00466927     -1.66834046
H      -2.78358160     -0.11133024      0.70330908
