13
b3lypvtz=-190456.56539793
C      -1.60850911      1.61974654     -0.00028386
C      -0.83850367      0.52362273      0.00000430
C      -1.43637591     -0.78097658      0.00045233
N      -1.94666070     -1.81307527      0.00080338
C       0.63080823      0.61406330     -0.00015593
N       1.36311249     -0.41447347      0.00019544
C       2.80826179     -0.23441163      0.00009100
H      -1.15884270      2.60372625     -0.00062404
H      -2.68654370      1.55889969     -0.00017471
H       1.02498693      1.63955438     -0.00065926
H       3.14004517      0.31370197      0.88680397
H       3.13982689      0.31751980     -0.88434439
H       3.29398828     -1.20744670     -0.00194124
