18
b3lypvtz=-205228.68643615
C      -2.77918191      0.09544494     -0.06496429
C      -1.44305404      0.48933905      0.55126579
C      -0.25106341     -0.26319765     -0.01090727
O      -0.37889613     -1.20948588     -0.75599074
C       1.14981748      0.22413442      0.39936261
C       1.59462836      1.32441273     -0.57554125
N       2.15250782     -0.83579002      0.42725239
H      -2.79494232      0.30939884     -1.13370804
H      -3.59757563      0.64115858      0.40548369
H      -2.96131444     -0.97180081      0.05352075
H      -1.44318822      0.30590612      1.63263944
H      -1.25535136      1.56279045      0.45033249
H       1.08582894      0.65707365      1.40159405
H       0.88998598      2.15644857     -0.60534895
H       1.68194364      0.91692048     -1.58438096
H       2.57012083      1.70167309     -0.27261694
H       2.08758415     -1.36342527     -0.43842554
H       1.93557928     -1.49794832      1.16439179
