16
b3lypvtz=-202042.51463768
N       2.98307628     -0.63149030     -0.30154172
C       2.00302594      0.12352299     -0.03042144
C       0.68446993     -0.27885241      0.58000576
C      -0.53154759      0.25762126     -0.19906421
N      -0.53765018      1.72473390     -0.15269511
C      -1.81580033     -0.34153469      0.33709705
N      -2.65586650     -1.06617420     -0.27151357
H       2.77925104     -1.60257615     -0.05030994
H       2.10440170      1.18434131     -0.26000098
H       0.63442849      0.11287596      1.60381605
H       0.62946824     -1.36740550      0.65204920
H      -0.43308083     -0.03566227     -1.24882167
H      -1.30503665      2.09853491     -0.69857312
H      -0.65925043      2.05473146      0.79926101
H      -2.04151664     -0.07744674      1.37659782
H      -2.35121349     -1.25081654     -1.23137812
