11
b3lypvtz=-233889.26132557
N       2.25547155     -0.38895165     -0.50066836
N       1.36902771     -0.40725271      0.35724497
C       0.27650167      0.50947640      0.15128086
O       0.43368962      1.69592161      0.23018219
C      -1.08824474     -0.14141236     -0.01698653
N      -2.11916367      0.54845350     -0.28998125
N      -1.10884002     -1.51155718      0.06617308
H       2.98844360     -1.04795600     -0.19483985
H      -1.86709338      1.53216476     -0.36539803
H      -2.02809807     -1.92509904      0.07261284
H      -0.41876627     -1.96009233      0.64446806
