16
b3lypvtz=-181095.06706873
C       1.87280497     -0.75265954      0.40024271
C       0.54626434     -0.17905739      0.05492950
C       0.03104363      1.16952453     -0.34592897
C      -0.29738966     -0.09016520     -1.18012931
C      -1.42309171     -0.77766543     -0.43917729
N      -0.77181979     -0.37478506      0.86937494
C      -0.92495671      1.13305084      0.82609184
H       2.61717735     -0.45545243     -0.34124047
H       2.21117600     -0.40418605      1.37851067
H       1.83703970     -1.84396057      0.42569429
H       0.58389812      1.99409084     -0.77476191
H       0.01827815     -0.17462119     -2.21101090
H      -2.45087192     -0.42575153     -0.55926990
H      -1.39439251     -1.86232032     -0.53750979
H      -0.50092572      1.56471906      1.73209786
H      -1.95423423      1.47923945      0.70208677
