18
b3lypvtz=-202792.48914915
C       3.37957897      0.68045456     -0.01506999
N       2.39779244     -0.37584080      0.16128087
N       1.17147155     -0.08818969     -0.37043259
C       0.13890688     -0.65426708      0.11249645
C      -1.21962925     -0.44016058     -0.47522144
C      -2.18502432      0.25535294      0.49059405
N      -3.52842320      0.32269964     -0.09175890
H       3.12955328      1.60660448      0.51763082
H       4.34536062      0.32041319      0.33955275
H       3.46321096      0.90838945     -1.07631161
H       2.35928514     -0.73811268      1.11140910
H       0.21763141     -1.32500728      0.97838863
H      -1.11069041      0.15199320     -1.38604652
H      -1.66336216     -1.40002035     -0.75809502
H      -1.76689143      1.23469568      0.76214214
H      -2.25279568     -0.32552175      1.41451793
H      -4.17851636      0.73937761      0.56417471
H      -3.52442342      0.92111343     -0.91057737
