12
b3lypvtz=-249737.92922112
N       2.44916105     -0.63434210     -0.33271305
C       1.28127784      0.01825993     -0.65058009
N       0.17946575     -0.25425443     -0.07456311
N      -0.95171629      0.36198439     -0.55892266
C      -2.10977840      0.25694040      0.17109972
N      -2.41923554     -0.43946027      1.16152439
F      -3.02782498      1.07304489     -0.39113497
H       2.41913528     -1.18087340      0.51472685
H       3.30092072     -0.11285997     -0.45741707
H       1.36774878      0.73852249     -1.46741005
H      -0.86873633      1.15992423     -1.17653247
H      -1.62041787     -0.98668615      1.46782252
