14
b3lypvtz=-229577.71489632
C       2.77533944     -0.67657232      0.09742670
C       1.62446187     -0.01064523      0.02012689
F       1.63719559      1.33496250     -0.01753307
C       0.30451125     -0.60777367     -0.02552677
N      -0.75350838      0.10986617     -0.10200958
N      -1.94915693     -0.49315836     -0.20680564
C      -3.09762790      0.31042024      0.17001901
H       2.77497131     -1.75520007      0.12682560
H       3.71845433     -0.15358212      0.13040143
H       0.27100180     -1.70017104      0.00078291
H      -1.98508304     -1.46746302      0.08148947
H      -3.04661383      1.26054053     -0.35796596
H      -4.00429292     -0.21172056     -0.13420404
H      -3.14748259      0.51288895      1.24601405
