17
b3lypvtz=-191967.95012842
C       3.08325859     -0.01538709      0.12491770
N       1.70282810     -0.42571674     -0.00818169
C       0.82344767      0.48021601     -0.13844029
N      -0.49798784      0.20728398     -0.33664740
C      -1.16242738     -1.07095518     -0.05287598
C      -2.48513274     -0.28959780      0.15852135
C      -1.65043958      1.01663720      0.08972930
H       3.50595327     -0.42442250      1.04607040
H       3.67604084     -0.42022117     -0.70000700
H       3.22123210      1.07604039      0.13935279
H       1.05101231      1.55559276     -0.13189232
H      -0.76875374     -1.55738101      0.84342772
H      -1.13350760     -1.78347613     -0.87725788
H      -3.18978376     -0.39494119     -0.66302295
H      -2.99969300     -0.47084689      1.09826434
H      -1.51188756      1.50178287      1.06094362
H      -1.97269368      1.76396650     -0.63741871
