18
b3lypvtz=-205215.34210833
C       2.42368170     -1.23306004      0.04592856
C       1.77613611      0.05347609     -0.46572041
C       0.59965080      0.56561754      0.38322091
O       0.26449630      1.87753477     -0.00980200
C      -0.60527676     -0.33786638      0.30764238
N      -1.71540790      0.12232343     -0.07437384
C      -2.87047794     -0.74825316     -0.14751560
H       3.29376241     -1.49126969     -0.55877273
H       2.76304848     -1.12212947      1.07840630
H       1.74283523     -2.08527752      0.01080771
H       1.43285166     -0.06794087     -1.49625647
H       2.51343143      0.85809645     -0.47800871
H       0.92697130      0.57453753      1.43571901
H      -0.68444368      1.85745662     -0.21524311
H      -0.47135632     -1.38631092      0.59911554
H      -3.25531879     -0.74892655     -1.16898526
H      -3.66147389     -0.34946350      0.49033211
H      -2.65688615     -1.78147436      0.15343260
