14
b3lypvtz=-180357.73672256
C       1.23373355     -0.29064386      0.37750401
C       0.49503984      0.33863062     -0.87143273
C      -0.13582648      1.59750211     -0.33252448
N      -1.08363049      1.38021844      0.49173098
C      -1.28104005     -0.05392961      0.51764744
C      -0.06980294     -0.98086423      0.73549524
C      -0.62605679     -0.72298177     -0.65061482
H       1.97107067     -1.01871564      0.04395001
H       1.69010526      0.39640455      1.09364266
H       1.04527494      0.39877048     -1.80444204
H       0.25108130      2.59753941     -0.50234433
H      -2.22299916     -0.40899479      0.90780242
H      -0.17457477     -1.85333848      1.36479318
H      -1.09237492     -1.37959725     -1.37120752
