15
b3lypvtz=-214526.83483506
N      -1.83913611     -0.95073264      1.38656355
C      -0.47177127     -0.62459565      1.15307423
C      -0.13606370      0.29613891      0.23856404
N      -1.09444057      0.91715109     -0.57176338
C       1.29617835      0.60961565     -0.08731019
C       1.77511456     -0.12078567     -1.32965815
O       2.87223003     -0.60211313     -1.44536552
H      -2.21646552     -1.57969702      0.68602660
H      -1.98236364     -1.37519727      2.29153697
H       0.30136660     -1.12885592      1.72031956
H      -2.02599715      0.83313795     -0.18220528
H      -0.87698817      1.87708868     -0.80106906
H       1.40715328      1.68573710     -0.28030032
H       1.96227744      0.35501386      0.73560326
H       1.02890586     -0.19190595     -2.14601631
