14
b3lypvtz=-203655.35210042
C      -2.49274580      0.46808950      0.09892729
C      -1.29699712     -0.05599660      0.35620626
C      -0.15599833     -0.10276315     -0.57889876
C      -0.30639616     -0.24241408     -1.90285097
C       1.17147917      0.00553650      0.05381385
N       2.24154573     -0.28649637     -0.57065704
O       3.37099321     -0.07132752      0.22569992
H      -3.28510189      0.44330594      0.83453537
H      -2.71398773      0.94791949     -0.84613836
H      -1.11539386     -0.47555556      1.34181399
H      -1.28399022     -0.38509636     -2.34096146
H       0.54833353     -0.23684645     -2.56357947
H       1.22543900      0.34475798      1.08802578
H       4.09272048     -0.35311331     -0.34593638
