12
b3lypvtz=-202939.89181483
N       2.69582993      0.25918808     -0.00000847
C       1.66431591     -0.48654035      0.00002991
C       0.26806314     -0.08494646      0.00002306
C      -0.38990939      1.11319174     -0.00003251
C      -1.78091119      0.81731821      0.00005024
C      -1.87881804     -0.53863302     -0.00003395
O      -0.64991348     -1.10415639      0.00000781
H       2.44042300      1.24884016     -0.00005784
H       1.81651626     -1.56680663      0.00004821
H       0.06331683      2.08980832     -0.00007747
H      -2.59835935      1.51750191      0.00011860
H      -2.71303863     -1.21729758     -0.00007659
