13
b3lypvtz=-234636.93187326
C      -1.60246534     -0.21681300     -0.41192052
C      -0.43517692     -0.98634730      0.17595276
N      -0.60863343     -2.15865313      0.62819667
N       0.87296602     -0.42081644      0.19472092
N       0.94853778      0.70955594     -0.33982420
N       2.16248537      1.24509451     -0.29508649
O      -1.83865995      1.03448647      0.21529820
H      -1.44370715     -0.09693835     -1.49078727
H      -2.49103276     -0.82430845     -0.26365254
H       0.28359679     -2.53314363      0.95823975
H       2.93436632      0.63532143     -0.04555504
H       2.31181654      2.00873836     -0.93065626
H      -1.09409325      1.60382359     -0.00410213
