15
b3lypvtz=-240207.28994264
C      -0.65216895     -1.24831660     -0.47014164
C      -0.06916459      0.14819486     -0.21343987
C      -1.44919904      0.45464980      0.40188597
O      -1.81169069     -0.94227760      0.34637964
C       1.09492327      0.19223658      0.76219658
O       2.26122055     -0.39295259      0.21398596
O       0.27977752      0.81493603     -1.42155548
H      -0.92054798     -1.40991910     -1.51652243
H      -0.08645576     -2.09726504     -0.08676506
H      -2.08004367      1.06978374     -0.24696897
H      -1.46963856      0.84560371      1.42244956
H       1.27470166      1.23782970      1.05925602
H       0.84863152     -0.36756072      1.66537009
H       2.35193139     -0.05373785     -0.68463079
H       0.42772334      1.74879512     -1.23149961
