17
b3lypvtz=-194367.53543791
C       2.20035149     -0.23794070     -0.57253000
C       1.06320347     -0.34679414      0.09202150
C       0.09982154     -1.48232213      0.38703260
C      -1.04253334     -0.41697087      0.46419804
C      -1.85567817     -0.29543668     -0.81627377
C       0.06378614      0.66920715      0.62172195
O      -0.15435105      1.87978378     -0.07186348
H       2.71827826     -1.10419403     -0.96536423
H       2.64649106      0.73024960     -0.76628364
H      -0.00079151     -2.25178351     -0.37865275
H       0.29070949     -1.96701042      1.34669051
H      -1.70553707     -0.50742226      1.32511460
H      -2.50037480     -1.16794851     -0.93929012
H      -2.48434680      0.59493713     -0.79825892
H      -1.20879553     -0.22400759     -1.69220284
H       0.24293533      0.86116927      1.68689398
H       0.47657648      2.53666791      0.23500056
