15
b3lypvtz=-170319.74753169
C       2.70212714      0.33812512      0.00000437
C       1.70825991     -0.55216286      0.00000535
C       0.28603477     -0.24899039      0.00000357
C      -0.71531496     -1.15890084      0.00000347
C      -2.04098422     -0.46142485     -0.00001168
C      -1.65505845      0.99005897     -0.00001079
C      -0.31897870      1.09631661      0.00000305
H       2.52103720      1.40502859      0.00000932
H       3.73626105      0.02240683      0.00000323
H       1.95609875     -1.60926663      0.00001062
H      -0.59542229     -2.23235073     -0.00000905
H      -2.64837630     -0.72574957      0.87424806
H      -2.64834598     -0.72575095     -0.87429262
H      -2.36558505      1.80288676     -0.00001634
H       0.24114313      2.01959193     -0.00000058
