12
b3lypvtz=-200542.88706903
N       1.25675339     -0.01732140     -0.24484328
C       0.42247003      0.34988441     -1.27459528
C      -0.43500957     -0.57097121     -1.90242676
C      -1.18177853     -0.10764221     -2.95473807
C      -1.03111084      1.23188979     -3.32283130
N      -0.20800051      2.05906785     -2.69389017
N       0.51218177      1.62626388     -1.66900995
H       0.97645730     -0.79195299      0.33161344
H       1.66872075      0.75810066      0.25014879
H      -0.48849203     -1.59917541     -1.56853538
H      -1.86478545     -0.75408021     -3.48951053
H      -1.58640631      1.66143684     -4.14628150
