15
b3lypvtz=-191166.77261973
C       1.48499279      0.43528017      0.16173862
N       1.28053523     -0.80808843     -0.63727905
C      -0.16194000     -0.95816863     -0.59289890
C      -0.77503331     -0.46803155      0.76232861
N      -1.98707961      0.00514784      0.00222933
C      -0.80571888      0.42639254     -0.83379608
C       0.03782193      0.82178575      0.42433736
H       2.04389584      0.25205795      1.08343217
H       2.02594569      1.18834200     -0.41610998
H       1.74916581     -1.60149999     -0.21889018
H      -0.57002992     -1.83477715     -1.08649175
H      -0.84775721     -0.99495307      1.71353515
H      -2.37978206      0.82544591      0.46735593
H      -0.90789593      0.96116648     -1.77677308
H      -0.18712036      1.74990017      0.94748183
