19
b3lypvtz=-171826.95668237
C       3.44238502     -0.16247492      0.18665385
C       2.31230627      0.12215344     -0.44845792
C       1.01042702      0.47376281      0.20642402
C      -0.11784857     -0.51780797     -0.12708982
C      -1.44277252     -0.13867110      0.49383663
C      -2.35765245      0.83899671     -0.19465429
C      -2.73619781     -0.61747522     -0.10513026
H       4.34828364     -0.41453231     -0.34912358
H       3.50312292     -0.14945105      1.26910398
H       2.30198207      0.09427673     -1.53573931
H       1.14614524      0.52434093      1.29009437
H       0.69834204      1.47259040     -0.11797051
H      -0.23481281     -0.58137706     -1.21389114
H       0.17591586     -1.51721770      0.20778068
H      -1.42538719     -0.07707617      1.57662238
H      -2.90683175      1.54960151      0.40747949
H      -2.05085765      1.21972965     -1.16038452
H      -2.68297052     -1.20846624     -1.01007827
H      -3.54114782     -0.89767544      0.56024020
