13
b3lypvtz=-239453.51194565
C      -1.89633084     -0.47248504     -0.39746095
O      -2.44400273     -0.43295351      0.68395109
C      -0.48017245     -0.14809006     -0.60826390
C       0.21966117      0.73696305      0.40135360
C       0.54483875     -0.70735492      0.42336960
O       1.78326089     -1.13150334     -0.01846887
O       1.19560200      1.58731376     -0.14787893
H      -2.45421532     -0.79194139     -1.29906654
H      -0.11399329     -0.09907448     -1.62506507
H      -0.40885375      1.15634221      1.17860104
H       0.12535328     -1.33629896      1.19658232
H       2.24531475     -0.35483385     -0.36427292
H       1.68353754      1.99391653      0.57661955
