16
b3lypvtz=-181119.41342603
C       2.36243652      0.57291808     -0.27743286
C       1.14354845      0.10822976     -0.01575883
N       0.53427208     -1.14583152     -0.19165142
C      -0.64409394     -0.79100395      0.62577175
C      -1.86695384     -0.37493243     -0.21897688
C      -1.26157838      1.05416712     -0.36741356
C      -0.10862220      0.67920943      0.61879467
H       2.61184898      1.59917161     -0.05180816
H       3.13035369     -0.05080805     -0.71528540
H       1.02735405     -2.02214290     -0.11528856
H      -0.78719015     -1.38224348      1.52950997
H      -2.79318280     -0.37705104      0.35708439
H      -2.01543584     -0.94663051     -1.13371384
H      -1.90848784      1.84907708     -0.00012056
H      -0.91955663      1.31780457     -1.36629873
H       0.00899386      1.28881423      1.50958301
