18
b3lypvtz=-205195.52576703
C       0.25809338      1.61323635     -0.62222933
C      -0.16083963      0.25574612     -0.10611011
C      -1.03040637      0.19064747      1.15080568
C      -1.61620321     -0.12187356     -0.19193170
O      -1.97353678     -1.46547195     -0.40993032
N       0.78379238     -0.79960093     -0.37032000
C       1.95829515     -0.81698370      0.49479621
H      -0.53718603      2.34749886     -0.48617663
H       1.13798640      1.98698058     -0.09385762
H       0.50163692      1.55411468     -1.68457978
H      -0.87756479     -0.65923204      1.80282244
H      -1.33223770      1.10138272      1.65098843
H      -2.29869844      0.59921519     -0.63218848
H      -1.97350325     -1.62662295     -1.35986271
H       0.30179887     -1.68834977     -0.31971515
H       1.72020482     -0.83330344      1.56857944
H       2.57976591      0.05952479      0.30621294
H       2.55860236     -1.69690840      0.26277976
