16
b3lypvtz=-204428.58654948
C       2.39406657     -0.75655354     -0.05180520
N       1.52160874     -0.01639448     -0.57890576
C       0.88109077      0.98547325      0.25087776
C      -0.62116732      0.76644635      0.35797966
C      -1.41310209      0.37135043     -0.90530048
C      -1.75610553     -0.90768295     -0.12457898
O      -0.95263865     -0.48667366      1.00570569
H       2.87928477     -1.52301438     -0.65263563
H       2.70219998     -0.67404395      0.99766134
H       1.29922539      1.01747350      1.26765319
H       1.04292393      1.96400184     -0.21310336
H      -1.04943244      1.60869506      0.91164862
H      -0.79669408      0.21664538     -1.78594396
H      -2.25438438      1.01736889     -1.14521266
H      -1.38818812     -1.84242852     -0.55163755
H      -2.80644653     -1.02392023      0.15343933
