13
b3lypvtz=-190460.26260845
N      -0.62520145      1.95908294     -0.03170380
C       0.00097352      0.85350746      0.01209589
C       1.46893963      0.70249694      0.02981237
C       1.73638642     -0.61307197     -0.00214301
C       0.48902117     -1.40719326     -0.01394408
C      -0.55693141     -0.55788658      0.01086816
N      -1.91420241     -0.79175939     -0.05178730
H      -1.63622041      1.81659967     -0.07916904
H       2.15452732      1.53217136      0.05165698
H       2.72032277     -1.05925712     -0.00983201
H       0.44863035     -2.48550087     -0.03431722
H      -2.49509318     -0.14391123      0.45886181
H      -2.19918133     -1.74695194      0.09661625
