13
b3lypvtz=-247058.77872089
C      -2.69333055     -0.56710931     -0.10906447
C      -1.60147550     -0.09503382     -0.25921866
C      -0.27217151      0.48531632     -0.43714283
C      -0.02069426      1.67904442      0.49955418
C       0.79843022     -0.59714395     -0.28019658
F       2.01985004     -0.08137429     -0.62197486
F       0.88734970     -1.01368568      1.01547631
H      -3.65887961     -0.98596868      0.02828281
H      -0.18539648      0.82431134     -1.47454727
H       0.97032196      2.09382958      0.32270827
H      -0.09249661      1.37025288      1.54050564
H      -0.76298182      2.45388049      0.31734269
H       0.61485642     -1.47259531     -0.90428323
