13
b3lypvtz=-237052.13333959
C      -1.93559231     -0.38782963      0.96314339
C      -0.98970111      0.37312883      0.39231279
O      -1.22771069      1.58372138     -0.17467938
C       0.42722785     -0.01635262      0.33636581
O       0.84763017     -1.02088244      1.17498043
N       1.23092144      0.52863179     -0.48525477
N       2.54736731      0.16173966     -0.42579978
H      -2.96282796     -0.05520239      1.02520828
H      -1.72083993     -1.38220903      1.32161910
H      -2.17938955      1.73127915     -0.20077054
H       0.24109296     -1.08363168      1.92067689
H       2.99521107      0.33509942     -1.31107674
H       2.72661076     -0.76739244     -0.06302547
