16
b3lypvtz=-202053.65200213
C      -3.26304088     -0.61470580     -0.00024778
N      -1.81314262     -0.48126563     -0.00011687
C      -1.33304448      0.68797047      0.00026915
N       0.02095400      0.95631339      0.00034917
C       1.02868833      0.00940576      0.00004233
N       2.24211866      0.36639957      0.00015737
C       3.25290572     -0.68334673     -0.00009878
H      -3.71847863     -0.16121330     -0.88715360
H      -3.52659965     -1.67100720      0.00110125
H      -3.71904390     -0.15871680      0.88509730
H      -1.93620345      1.60360913      0.00057611
H       0.32331737      1.91727894      0.00067067
H       0.65545289     -1.01536110     -0.00027982
H       4.24184778     -0.22785835     -0.00106043
H       3.18127519     -1.32254379      0.88574456
H       3.17994969     -1.32356754     -0.88509861
