18
b3lypvtz=-181900.24881577
C       2.34886288     -1.22596749     -0.12946023
C       1.44154031     -0.15252899      0.42200885
C       1.53109924      1.26310415     -0.08405503
C       0.32274713      0.42113750     -0.40807043
C      -1.02541720      0.74529999      0.20582307
C      -1.93697311     -0.45342657      0.26412648
N      -3.09986916     -0.57461988     -0.22184157
H       3.32001390     -1.21767940      0.37065362
H       1.91515528     -2.22004731     -0.00006627
H       2.52642017     -1.07862330     -1.19665460
H       1.22569643     -0.24944847      1.48078547
H       2.23330576      1.47182526     -0.88052592
H       1.40759811      2.07333597      0.62278965
H       0.26682777      0.05484506     -1.42745564
H      -0.86898580      1.11057108      1.22739836
H      -1.51825179      1.54989229     -0.34874009
H      -1.52734936     -1.32250988      0.78666943
H      -3.38714955      0.28873697     -0.69059415
