17
b3lypvtz=-194361.73498506
C       2.55227068     -0.47251904      0.24486924
C       1.45232670      0.49151464     -0.21875373
C       0.19529717     -0.21479679     -0.63769074
C      -0.99845838     -0.02998697     -0.10092218
C      -2.38569491     -0.58835048     -0.31010422
O      -2.89777205      0.26142586      0.75033160
C      -1.58622574      0.83407782      0.99117872
H       2.80711676     -1.18474236     -0.54254388
H       2.23002243     -1.04397216      1.11670122
H       3.46131657      0.06923251      0.51088231
H       1.83221026      1.07900434     -1.06179213
H       1.22818926      1.20599311      0.57681844
H       0.29439204     -0.94029651     -1.44187858
H      -2.51906211     -1.65034111     -0.08146521
H      -2.85615399     -0.36613693     -1.27304782
H      -1.23513981      0.63572059      2.00897839
H      -1.57463488      1.91417345      0.81336318
