21
b3lypvtz=-193508.39772801
C      -2.45385759      0.62973244      0.68691726
C      -1.27500900      0.15962729     -0.17236829
N      -1.53585734     -1.09694366     -0.89460508
C       0.00000057      0.00000130      0.66262659
C       1.27500892     -0.15962718     -0.17236971
C       2.45385869     -0.62973047      0.68691525
N       1.53585648      1.09694189     -0.89461008
H      -2.66771581     -0.09073487      1.48216624
H      -3.35720536      0.73660339      0.08264917
H      -2.24944051      1.59464255      1.15729289
H      -1.06880841      0.91520806     -0.93294582
H      -1.86969957     -1.80681624     -0.24962795
H      -2.26992285     -0.96386123     -1.58037080
H       0.11397622      0.86893889      1.32020423
H      -0.11397412     -0.86893426      1.32020707
H       1.06880701     -0.91520982     -0.93294501
H       2.66771850      0.09073885      1.48216197
H       3.35720544     -0.73660334      0.08264596
H       2.24944203     -1.59463929      1.15729373
H       2.26992110      0.96385761     -1.58037640
H       1.86969958      1.80681611     -0.24963522
