14
b3lypvtz=-201271.91798745
N       3.54883747     -0.25677938      0.00259140
N       2.49384971      0.42446803     -0.00058409
C       1.32967131     -0.33088909     -0.00049651
C       0.13778376      0.30410192     -0.00283477
C      -1.14191083     -0.32880858      0.00276600
C      -2.29718188      0.37381140      0.00500064
N      -3.56015749     -0.14709892     -0.04589194
H       4.32617305      0.41531544      0.00188650
H       1.42690840     -1.41453836      0.00219140
H       0.16781764      1.38965245     -0.00668806
H      -1.17850008     -1.41406169      0.00420774
H      -2.26343795      1.45751041      0.00584000
H      -3.68262561     -1.13141877      0.12406066
H      -4.32960048      0.43247714      0.23777503
