19
b3lypvtz=-192741.61213734
N      -2.57212643     -0.39586995     -0.16704904
C      -1.48074453      0.57148722     -0.31178151
C      -0.29697128      0.21424638      0.59141365
C       0.30238169     -1.18397917      0.26738955
C       1.75255865     -0.90691235     -0.16681430
N       1.69901614      0.48369001     -0.62231761
C       0.88752380      1.17764841      0.37815361
H      -3.30083898     -0.21752452     -0.84709050
H      -3.00102084     -0.31146730      0.74789446
H      -1.78576271      1.60630122     -0.09825716
H      -1.14246584      0.54636997     -1.35029238
H      -0.63366332      0.26126310      1.63030690
H      -0.27208742     -1.65051570     -0.53107585
H       0.26360143     -1.85780357      1.12243402
H       2.08840098     -1.56510994     -0.96922503
H       2.43520430     -1.04452898      0.68711069
H       2.61804002      0.89403665     -0.72891397
H       1.42172961      1.32864191      1.32992326
H       0.57513472      2.15850558      0.01373621
