17
b3lypvtz=-217665.66056054
O       2.44372846      1.23733454      0.62434663
C       2.45384840     -0.06203883      0.05427480
C       1.10208027     -0.73705772      0.15551504
O       0.17873146      0.05207806     -0.59050957
C      -1.14568139     -0.38375469     -0.49346037
C      -2.20256966      0.64560736     -0.69334178
C      -1.97740901      0.05016250      0.68142172
H       1.72730588      1.72145817      0.19914143
H       3.19326739     -0.64307476      0.60695002
H       2.76404373     -0.02869057     -0.99721079
H       0.78494594     -0.79590840      1.20235707
H       1.15272862     -1.75504228     -0.25277211
H      -1.31346146     -1.37927446     -0.89654076
H      -1.86389850      1.65963112     -0.85219967
H      -3.09141110      0.37123567     -1.24373298
H      -2.71279834     -0.63384693      1.08204641
H      -1.49345069      0.68128123      1.41381491
