17
b3lypvtz=-191971.60075891
C       2.60547309     -0.06380259      0.55116358
C       1.78178413     -0.77447698     -0.22402658
N       0.45449531     -0.55840661     -0.55471695
C      -0.39327759      0.50606430     -0.25377628
C      -0.01068208      1.75756294      0.03840227
N      -1.74568853      0.12159842     -0.36541435
C      -2.26002224     -0.86105261      0.59381037
H       3.60604988     -0.43509609      0.71343083
H       2.32258369      0.84874709      1.04832960
H       2.15272394     -1.68636338     -0.67745356
H       0.03257261     -1.24783888     -1.15270169
H      -0.74842744      2.48775898      0.33642372
H       1.01124291      2.08216635     -0.05516050
H      -2.33374932      0.94136642     -0.40070264
H      -3.28674338     -1.11094103      0.32819673
H      -2.23970240     -0.50191652      1.63005091
H      -1.67045658     -1.77453381      0.54470655
