15
b3lypvtz=-212092.38685623
C       1.63909297      1.39286796      0.00024538
N       1.32993547     -0.02811556     -0.00004788
C       2.44968868     -0.94721481      0.00026954
C       0.06411038     -0.47244768      0.00001225
N      -0.96851449      0.30918587      0.00011160
N      -2.12112163     -0.46077213     -0.00000175
N      -3.14685024      0.24132157     -0.00003417
H       2.22304742      1.65232024      0.88712090
H       0.71015896      1.95386321      0.00007939
H       2.22353964      1.65255132     -0.88622904
H       3.07412549     -0.79858918      0.88583124
H       2.08836899     -1.97335103     -0.00029036
H       3.07502588     -0.79802174     -0.88454654
H      -0.05680201     -1.55529039     -0.00011109
H      -3.92390653     -0.42853063     -0.00026647
