18
b3lypvtz=-181916.95572841
C       1.27135861     -0.77992341     -0.44994741
C       1.27135954      0.77992174     -0.44994752
C       0.00056247      1.09656779      0.35938544
C      -1.24334973      0.77897853     -0.50823169
C      -1.24335071     -0.77897699     -0.50823167
C       0.00056108     -1.09656783      0.35938543
N       0.04447941     -0.00000004      1.35547998
H       2.15348919     -1.17171110      0.05415836
H       1.23663642     -1.20722827     -1.45192981
H       1.23663765      1.20722646     -1.45192999
H       2.15349068      1.17170848      0.05415799
H      -0.00761912      2.08316441      0.81863710
H      -1.17604914      1.20482547     -1.51009577
H      -2.14761459      1.17746287     -0.04543704
H      -2.14761606     -1.17746016     -0.04543697
H      -1.17605072     -1.20482404     -1.51009575
H      -0.00762179     -2.08316442      0.81863713
H      -0.79995119      0.00000050      1.92173220
