15
b3lypvtz=-214534.31405146
C       1.46955558     -0.96174777      0.33187751
C       0.87947189      0.42615309      0.23377954
N      -0.34323345      0.70265128      0.00236570
C      -1.30794353     -0.35691852     -0.15813596
C      -2.63944289      0.20477618     -0.62218672
O      -3.54460874     -0.47149569     -1.03618302
N       1.76134461      1.45716261      0.47680361
H       1.30171694     -1.51380757     -0.59399473
H       0.98402018     -1.52075799      1.13347817
H       2.53864987     -0.94090137      0.53566739
H      -1.01455663     -1.13505009     -0.87461274
H      -1.51267325     -0.88015465      0.78889715
H      -2.71735008      1.30791304     -0.54247785
H       1.41048393      2.37647751      0.25754307
H       2.73456561      1.30569994      0.27591426
