14
b3lypvtz=-224613.91181421
C       2.24241678     -0.87431527      0.41932994
C       1.22954234     -0.17052891     -0.09912373
N       1.35511382      1.20131788     -0.45746416
N      -0.03050959     -0.73348082     -0.31561282
C      -1.10448434     -0.14345093      0.05362447
N      -1.25212945      1.01986991      0.73923669
O      -2.29625222     -0.73582242     -0.19308284
H       3.22775274     -0.44409351      0.52963456
H       2.08317392     -1.88758825      0.75129433
H       2.31470888      1.51728550     -0.42196093
H       0.97357731      1.38229225     -1.37866599
H      -2.17505890      1.41366332      0.79435152
H      -0.46056831      1.64493761      0.71534683
H      -2.08330397     -1.58043337     -0.61256189
