17
b3lypvtz=-194388.41305461
C       2.38276361     -0.00895625     -0.22336477
C       0.99276841     -0.10088971      0.38067356
C       0.21183840     -1.44395729      0.23652171
C      -1.01779669     -0.61166641     -0.12954647
O      -2.19734180     -0.82250816     -0.12098936
C      -0.17644775      0.65173655     -0.33874333
C      -0.70033054      1.97519220      0.19015031
H       2.77101859      1.01048342     -0.17210244
H       3.08788366     -0.65690107      0.30125830
H       2.37349814     -0.30953516     -1.27400919
H       1.01900149      0.19621751      1.43139160
H       0.11688932     -2.09269090      1.10653182
H       0.55545359     -2.04111053     -0.61222183
H       0.05262248      0.73062768     -1.40821145
H       0.03053962      2.77384264      0.05038116
H      -1.61644320      2.26129194     -0.32783580
H      -0.92926133      1.90812754      1.25517817
