17
b3lypvtz=-191937.4640741
C      -2.52139843     -0.26722597      0.44682484
N      -2.09350980      0.26380928     -0.85711611
C      -1.15700091      0.28241512      0.27249926
C       0.04914998     -0.61362229      0.17134638
N       1.16729368      0.07376374     -0.46774670
C       2.48681802     -0.49287804     -0.23194877
C       2.08427886      0.78076000      0.41979590
H      -3.22861341      0.29908549      1.04122546
H      -2.67164274     -1.34013834      0.47002536
H      -2.48502524      1.18559036     -1.01511013
H      -0.96530024      1.24338753      0.74069163
H      -0.21089523     -1.48092506     -0.43893999
H       0.32023633     -0.97820811      1.17726704
H       2.55556543     -1.37134066      0.40313359
H       3.16133436     -0.48918536     -1.07885383
H       1.88690875      0.74707088      1.48754825
H       2.46101158      1.72813042      0.05544181
