16
b3lypvtz=-225338.63105856
N      -2.69513738      1.14914489     -0.23574608
C      -1.39299972      0.85009714      0.35516248
C      -0.54908061     -0.17149752     -0.41014581
N       0.73519100     -0.39474611      0.26531904
N       1.44214830     -1.49556704     -0.38580508
C       2.64101544     -1.14317681     -0.64233454
O       3.19365531      0.03987900     -0.36516302
H      -2.58567711      1.53509738     -1.16643006
H      -3.24844277      0.30542537     -0.33209628
H      -1.56188312      0.49061736      1.37522431
H      -0.83478632      1.78392998      0.44797179
H      -1.10384765     -1.11165928     -0.52426640
H      -0.33903294      0.20162922     -1.41494903
H       0.53730856     -0.73614806      1.20209640
H       3.30820797     -1.84064398     -1.13417218
H       2.45326104      0.53771846      0.04973445
