18
b3lypvtz=-205239.46019023
C       1.57589268     -1.75071038     -0.07833622
C       1.69386748     -0.23510497      0.06848578
C       0.39431802      0.52925978     -0.21672966
C       0.60719413      2.04494667     -0.22057918
N      -0.64941352      0.15534863      0.73856977
C      -1.89834341     -0.24289879      0.38820604
O      -2.30792303     -0.37757221     -0.74630414
H       1.27919319     -2.02462134     -1.09245868
H       0.83083933     -2.16089668      0.60432065
H       2.52804257     -2.23855543      0.13448997
H       2.04101790      0.01804219      1.07705435
H       2.45968139      0.14111631     -0.61446157
H       0.00588421      0.22409640     -1.18858031
H       1.35121608      2.32754080     -0.96701024
H       0.96090835      2.39458391      0.75283656
H      -0.32279405      2.56381719     -0.45179428
H      -0.45789789      0.26388435      1.72199941
H      -2.52846343     -0.44655344      1.27327473
