11
b3lypvtz=-241310.89644548
O      -3.21056285      0.17521854      0.55470544
C      -2.04184672      0.32971132      0.27103489
C      -1.03546339     -0.72260200      0.46830093
C       0.26696864     -0.59725201      0.17008824
N       0.78384956      0.58201100     -0.36870117
C       1.99819097      0.69978578     -0.64650118
F       2.92780749     -0.26249742     -0.46714176
H      -1.67471908      1.27798131     -0.15332438
H      -1.39925949     -1.65307177      0.88487507
H       0.94650240     -1.42514552      0.34705390
H       2.43863248      1.59586077     -1.06508999
