12
b3lypvtz=-223798.75899183
C      -1.30833716     -0.40692131     -1.07963457
C      -0.88796491      0.09319988      0.08052132
O      -1.77764639      0.68414575      0.93931934
C       0.53995615      0.14556861      0.47839603
N       1.05555378      0.85051019      1.39679148
N       1.38933052     -0.80596366     -0.19273312
N       2.25967050     -0.29087799     -0.90123847
H      -2.35785624     -0.39338815     -1.33466751
H      -0.60776650     -0.81338284     -1.78998239
H      -1.49008460      0.54971955      1.84977128
H       0.35950245      1.45247542      1.83675505
H       2.82564241     -1.06488543     -1.28329844
