17
b3lypvtz=-240981.57747811
O      -3.41324275     -0.83240354      0.29992579
C      -2.33596610      0.08363097      0.14041945
C      -0.97045140     -0.59094325      0.21937186
C       0.17715441      0.39887747      0.11265355
O       1.40041915     -0.31739493      0.15808115
C       2.53758821      0.51250921      0.04409194
O       3.68374927     -0.27357483      0.03484159
H      -3.37220088     -1.47862064     -0.41177471
H      -2.43269128      0.63749679     -0.80252105
H      -2.44977469      0.80567417      0.95096602
H      -0.89227043     -1.13749929      1.16077764
H      -0.87421402     -1.32408704     -0.58756037
H       0.10964064      0.96983814     -0.82504123
H       0.13326653      1.12376829      0.93770109
H       2.62365785      1.17620683      0.91167021
H       2.44650358      1.12353009     -0.86892126
H       3.62873190     -0.87700846     -0.71428167
