17
b3lypvtz=-191985.22348131
N       1.53620463      0.11311914      1.11851660
C       1.00395274      0.12735483     -0.25064613
C       0.15822947      1.38739599     -0.45240745
C      -1.26936688      1.21515355      0.00993601
N      -1.86542549      0.13788084      0.30698789
C      -1.14029468     -1.12836641      0.20434678
C       0.14243087     -1.08971723     -0.62678592
H       2.05379631     -0.74157006      1.29020648
H       0.78661068      0.14352165      1.80080122
H       1.86871297      0.17215281     -0.91624649
H       0.13981041      1.67269243     -1.50986648
H       0.61047464      2.22820413      0.07912432
H      -1.85409236      2.13361352      0.09400812
H      -0.92804511     -1.45788320      1.22757057
H      -1.83624420     -1.86743989     -0.19730311
H       0.70653055     -2.01606627     -0.48867221
H      -0.11328454     -1.03014583     -1.68957019
