16
b3lypvtz=-204455.29756328
C      -2.03154243     -0.70545060      0.56054793
C      -1.46298918      0.35656232     -0.39124851
C       0.00580412      0.14060934     -0.70583752
N       0.44280818     -0.28634722     -1.82962274
C       0.93746639      0.44070542      0.39231945
C       2.25190690      0.23413564      0.28907667
O       3.10883864      0.52196513      1.30026883
H      -1.94599527     -1.70180091      0.12462097
H      -3.08575763     -0.51463261      0.76547540
H      -1.50189891     -0.71310321      1.51380771
H      -2.02612836      0.35331671     -1.32664279
H      -1.58964324      1.34698385      0.05633742
H      -0.32588680     -0.44709941     -2.47853780
H       0.53977769      0.84481542      1.31465418
H       2.67684604     -0.17294107     -0.62130659
H       4.00639386      0.30228119      1.03608739
