13
b3lypvtz=-190412.43799046
C      -2.16510018     -0.05736178     -0.34755824
C      -1.13525052      0.66687685      0.45798441
N      -1.54533492      1.15144015     -0.88111604
C       0.20032816      0.16426961      0.59882802
C       1.31712123     -0.27135234      0.73149986
C       2.64175432     -0.78140091      0.89206615
N       3.43382969     -1.15172001     -0.03518254
H      -3.18694265     -0.01997366      0.01084217
H      -1.88305094     -0.97304347     -0.84961973
H      -1.50654219      1.21268058      1.31835732
H      -2.16192040      1.95029725     -0.77401899
H       2.99809578     -0.85594384      1.92008168
H       2.99301262     -1.03476841     -0.94959343
