12
b3lypvtz=-226228.05348009
N      -3.40900221      1.33668844      0.37596239
C      -2.50867140      0.65808001      0.15422908
C      -1.39022003     -0.23785846     -0.14074749
O      -0.17725912      0.42082747      0.15069970
C       0.95938084     -0.38071611     -0.10572831
C       2.19786649      0.42337014      0.23798257
O       3.30938201     -0.01368182      0.11685821
H      -1.44329354     -0.52789198     -1.19809697
H      -1.50429747     -1.14943070      0.45998618
H       0.95525111     -1.29648178      0.50022561
H       1.01587440     -0.67931162     -1.16096455
H       1.99478894      1.44650641      0.60979357
