20
b3lypvtz=-182679.60050956
C       1.37954776      1.72484660      0.14093210
C       0.34463556      0.71786630     -0.35028767
C      -1.11826680      1.15321430     -0.12767551
C      -1.89922052     -0.17071930      0.10920496
N      -0.92027287     -1.27455538      0.08177749
C       0.39281752     -0.66535259      0.33620559
C       1.52799799     -1.57476637     -0.10299369
H       2.39859743      1.37722355     -0.03991388
H       1.26917984      2.68730271     -0.36225898
H       1.27113968      1.90010023      1.21443005
H       0.50119523      0.54664677     -1.42217044
H      -1.18789628      1.80060874      0.74961867
H      -1.50739672      1.72143610     -0.97327191
H      -2.39411883     -0.14930984      1.08295859
H      -2.67472768     -0.34269963     -0.63722875
H      -0.90566538     -1.68565859     -0.84536739
H       0.47274110     -0.50093875      1.41962119
H       1.46669875     -2.53997669      0.40062957
H       1.48773526     -1.75095442     -1.18204669
H       2.49912295     -1.13455872      0.12599569
