17
b3lypvtz=-171063.94280013
C       0.00000024      1.43855025     -0.00000019
C      -1.08290799      0.50930855     -0.54640204
C      -1.81635519     -0.35576677      0.44641512
C      -0.66880260     -0.93204364     -0.33877252
C       0.66880246     -0.93204383      0.33877202
C       1.81635527     -0.35576713     -0.44641541
C       1.08290819      0.50930825      0.54640175
H       0.38815962      2.08977557     -0.78763016
H      -0.38815892      2.08977581      0.78762970
H      -1.60968229      0.80027505     -1.44462482
H      -2.81536405     -0.67851239      0.18662405
H      -1.66717489     -0.16250296      1.50176317
H      -0.88022703     -1.68062029     -1.09229617
H       0.88022668     -1.68062061      1.09229560
H       2.81536398     -0.67851317     -0.18662429
H       1.66717516     -0.16250320     -1.50176347
H       1.60968238      0.80027451      1.44462466
