16
b3lypvtz=-202057.06119835
C       0.37288649      2.00405266     -0.00001685
C       0.59782924      0.52339716      0.00004346
C       1.83067153     -0.00920105     -0.00012794
N       2.00001135     -1.43440737     -0.00004986
N      -0.50943105     -0.31872330      0.00034568
C      -1.83971548      0.02397539     -0.00000694
N      -2.84726749     -0.75548690     -0.00014102
H      -0.18788289      2.32594403      0.88049675
H       1.33042258      2.52028569     -0.00010689
H      -0.18799534      2.32586450     -0.88048803
H       2.69367800      0.64773454     -0.00029647
H       2.51534317     -1.75051197     -0.81386738
H       2.51525286     -1.75043828      0.81385594
H      -0.26223458     -1.30120128      0.00023165
H      -2.02192969      1.09506592     -0.00011713
H      -2.56575870     -1.73755274     -0.00000596
