12
b3lypvtz=-200543.82479408
C       2.57295750      0.23237820     -0.00001192
N       1.58818655     -0.57114593     -0.00001817
C       0.28378088     -0.12112151     -0.00002764
C      -0.37619934      1.09363070      0.00001589
N      -1.72906289      0.90631294     -0.00019899
C      -1.90799571     -0.39886720      0.00001946
N      -0.72793371     -1.06182478      0.00002782
H      -0.57210657     -2.05598442     -0.00009440
H       2.47737234      1.32074200      0.00026606
H       3.57745530     -0.17881370      0.00013217
H       0.05003577      2.08269842      0.00004199
H      -2.86095013     -0.90166372      0.00020872
