16
b3lypvtz=-204434.03781841
C      -1.87297253     -1.25930936      0.39102419
C      -1.15900043     -0.16593571      0.13685639
C       0.27400883      0.27447641      0.42163320
C      -0.01237252      1.43568408     -0.57359003
N      -1.43018260      1.01854263     -0.56107714
C       1.37867923     -0.69925189      0.04988256
O       2.67095496     -0.09913853      0.08657377
H      -1.45785533     -2.05935574      0.98561575
H      -2.88390407     -1.37643972      0.02425057
H       0.41092996      0.62606691      1.44734989
H       0.15373646      2.45155324     -0.21546826
H       0.49490328      1.30165014     -1.53194516
H      -2.01898938      1.04342699     -1.38084381
H       1.24200054     -1.04337438     -0.97585727
H       1.33350584     -1.58161507      0.69816106
H       2.87655776      0.13302001      0.99743431
