18
b3lypvtz=-205190.12681356
C      -2.39848258     -0.39663376     -0.29463901
C      -2.02797128      0.72558547      0.60713956
N      -1.00703600     -0.00038488     -0.13885298
C      -0.15753299     -0.90135887      0.63665127
C       1.07620019     -0.18635220      1.17898731
C       1.98774823      0.35523608      0.09113988
O       3.11621772      0.95561909      0.72891124
H      -2.84167127     -0.20053896     -1.26295592
H      -2.71685153     -1.32283141      0.17475621
H      -2.19768865      1.75162627      0.30619800
H      -2.09756975      0.54479135      1.67574369
H      -0.71171779     -1.35565097      1.47349297
H       0.14450049     -1.71785392     -0.02572825
H       0.77267650      0.63893789      1.82824938
H       1.64648379     -0.88198028      1.79958616
H       1.44666177      1.08169993     -0.52098557
H       2.30559168     -0.46465824     -0.56662768
H       3.66044149      1.37474740      0.05696436
