17
b3lypvtz=-215255.32098113
C       2.08053276      0.02981740      0.89877621
O       0.87639721     -0.66943533      0.62571496
C       0.40005166     -0.44962358     -0.67041102
C      -0.61090822      0.66250205     -0.88170237
C      -1.05268189     -0.79068556     -0.89552507
N      -1.83136295     -1.34496789      0.17945143
N      -1.06458956      1.50013179      0.20246026
H       2.36285593     -0.20614734      1.92318386
H       2.88320010     -0.29004335      0.22484826
H       1.94897520      1.11184815      0.79858404
H       1.11675845     -0.68857693     -1.45257924
H      -0.60017201      1.17653539     -1.83426590
H      -1.28207418     -1.20557612     -1.87126784
H      -1.24684786     -1.57422587      0.97262832
H      -2.54372983     -0.69445310      0.48803437
H      -0.56219025      2.37975201      0.20053509
H      -0.87421456      1.05314826      1.09153465
