10
b3lypvtz=-223095.0835600699
C      -0.85268348      0.29241683     -0.09800807
N       0.11318203     -0.35724693      0.47178934
C       1.37081748      0.20057190      0.32512687
O       1.69210363      1.21254348     -0.26126936
C       2.40669502     -0.60365669      1.00218764
N       3.24915156     -1.19699023      1.51448524
N      -2.11037950     -0.13888292     -0.03063252
H      -0.69349211      1.21504419     -0.65652097
H      -2.85922251      0.36330846     -0.47153465
H      -2.31617212     -0.98710810      0.47325123
