12
b3lypvtz=-202939.34364138
N       0.97539485      0.31217011      0.03001455
C       0.45728470      0.27911520      1.18916448
C       1.03682398      0.40122293      2.53078567
C       0.09570137      0.30252113      3.47826610
C      -1.28333145      0.09618242      2.91833222
C      -1.04764535      0.08087524      1.40545401
O      -1.88018615     -0.05917847      0.55386572
H       1.98645770      0.45145237      0.08390805
H       2.09273978      0.55153211      2.70941281
H       0.28777245      0.36252275      4.54101239
H      -1.98104507      0.89391685      3.18724332
H      -1.74356682     -0.84143264      3.24174069
