17
b3lypvtz=-215276.54113016
C      -2.69011598      0.79678566      0.45513087
N      -1.61746957     -0.13551305      0.76519147
C      -0.32654697      0.25483501      0.23957782
N       0.63898235     -0.78037048      0.58472038
C       2.01164353     -0.48158432      0.25791238
C       2.41243131     -0.57236104     -1.20253960
O       1.68784422     -0.94540286     -2.08824885
H      -3.61513895      0.45280230      0.91752776
H      -2.50429191      1.82962623      0.79054501
H      -2.85152645      0.82499881     -0.62434433
H      -1.53527709     -0.27533271      1.76508741
H      -0.44226445      0.40622180     -0.84205986
H       0.05092314      1.20418096      0.65974798
H       0.35023118     -1.65011096      0.15133629
H       2.68778534     -1.15948292      0.79764383
H       2.27424543      0.52058134      0.61597402
H       3.46854487     -0.28987375     -1.41058332
