12
b3lypvtz=-226262.47015335
C      -2.25170205     -0.35517793     -0.35251372
C      -0.92473486     -0.36132136     -0.41945510
C      -0.13367310      0.60998819      0.38185163
O      -0.63893590      1.43336266      1.11451162
N       1.26174614      0.56669333      0.28146704
C       2.09923735     -0.24601856     -0.45729285
O       3.30016348     -0.14627319     -0.42429050
H      -2.76496397      0.35423191      0.28273977
H      -2.84675010     -1.05239402     -0.92576929
H      -0.41369013     -1.07029286     -1.05472130
H       1.73167461      1.25683726      0.85589280
H       1.58172853     -0.98963543     -1.07642010
