16
b3lypvtz=-204445.73960253
C      -1.79354371     -0.81468494      0.60557972
N      -0.69570859     -0.37352732     -0.22371153
C      -0.65580733      1.07010865     -0.51159074
C       0.80359231      1.34262859     -0.73559666
C       1.51514726      0.29769995     -0.32812613
C       0.63122952     -0.79185139      0.21282396
O       2.87213935      0.19637535     -0.32062636
H      -1.75563581     -0.41043798      1.63269855
H      -1.79937036     -1.90414950      0.67295057
H      -2.74019489     -0.50738864      0.15856316
H      -1.04947474      1.66872151      0.33002437
H      -1.27968300      1.30229796     -1.38132174
H       1.19803489      2.26244508     -1.13790898
H       0.73170591     -0.84924116      1.31392302
H       0.89020543     -1.78345523     -0.18268408
H       3.12736374     -0.70554092     -0.10499712
