12
b3lypvtz=-257147.27006874
C       2.64556682     -0.68327122      0.00014871
C       1.70478295      0.47416741      0.00025164
C       0.37400667      0.38779498      0.00007271
F      -0.35287267      1.53694121      0.00019584
N      -0.31948856     -0.79534983     -0.00024586
C      -1.55828047     -0.96609722     -0.00029256
F      -2.49887243     -0.00472402     -0.00001563
H       3.29802465     -0.65071309      0.87708077
H       2.11161630     -1.63030793     -0.00034094
H       3.29857670     -0.65010114     -0.87634605
H       2.11920424      1.47451639      0.00051825
H      -2.01161423     -1.94976253     -0.00056689
