14
b3lypvtz=-226983.50015655
O       2.79568400      0.02477286      0.41143393
C       1.48501514      0.46968716      0.19268963
C       0.60105748     -0.65729022     -0.30607937
O       1.08721050     -1.74540829     -0.54290609
C      -0.85475074     -0.41192147     -0.50602987
C      -1.71665308      0.07441767      0.61627350
N      -1.32333232      0.98186888     -0.45238818
H       2.81425853     -0.89851784      0.11348569
H       1.44867745      1.27327020     -0.55354237
H       1.06129965      0.89293775      1.11045890
H      -1.31498365     -1.10441508     -1.20081740
H      -1.27463843      0.28012079      1.58257619
H      -2.73051403     -0.30551637      0.64805364
H      -2.07833050      1.12599397     -1.11330818
