12
b3lypvtz=-226246.46765775
O      -2.25196022      0.82976079      0.64688591
C      -1.54391515     -0.38002292      0.50595653
C      -0.18342727     -0.14150861     -0.05968862
N       0.31405913      1.00265584     -0.38960408
C       1.58984042      0.71054220     -0.86147706
C       1.78851950     -0.61979121     -0.78603691
O       0.64819821     -1.18742520     -0.26809742
H      -1.67451047      1.53984250      0.33508863
H      -2.09134365     -1.06601109     -0.15138630
H      -1.44741340     -0.87848851      1.47773687
H       2.25712270      1.47675664     -1.21484117
H       2.59473021     -1.28631045     -1.02843638
