13
b3lypvtz=-192837.96776073
C      -2.90736306      0.72658752      0.66843243
C      -2.14765263      0.03633478     -0.18463991
C      -0.77471469     -0.26853225      0.01357192
C       0.38730467     -0.56273479      0.13882616
C       1.80235243     -0.85455625      0.30353946
C       2.63157508      0.39455456      0.59411792
O       3.73198270      0.57471262      0.15109627
H      -3.94727016      0.92322829      0.44824654
H      -2.51224863      1.11065220      1.59906533
H      -2.58365841     -0.32969642     -1.10900191
H       1.94824311     -1.52992637      1.15724073
H       2.22511303     -1.35077411     -0.57172338
H       2.14623656      1.13005022      1.26512842
