18
b3lypvtz=-181922.61929006
C      -2.46967614     -0.56361916     -0.21341640
C      -1.14430111     -0.11016852      0.38859338
C      -0.69885106      1.31749953     -0.02585478
C       0.80464665      1.22419930     -0.05002691
C       1.22186815     -0.04675208     -0.01398542
N       2.52335865     -0.53828236      0.01834262
C       0.06301528     -1.01091505      0.03822922
H      -3.28284312      0.10826607      0.06956204
H      -2.73980211     -1.56753303      0.12199119
H      -2.41792641     -0.57979037     -1.30509686
H      -1.23962905     -0.11310180      1.47796525
H      -1.10310867      1.58298291     -1.01209096
H      -1.07762384      2.07170069      0.67005315
H       1.45376173      2.08654918     -0.13021252
H       3.23273731      0.10743358     -0.29403428
H       2.64251112     -1.44822740     -0.39968713
H      -0.06730239     -1.49725683     -0.93772620
H       0.21778602     -1.80899466      0.76938861
