15
b3lypvtz=-216929.75834435
C       2.36413403      0.54417759      0.47939772
C       1.68050163     -0.59792259     -0.24595032
O       2.31985358     -1.39029365     -0.91151811
C       0.20951325     -0.75128870     -0.14568564
C      -0.60569012      0.02694042      0.56534267
C      -2.08039531     -0.17838625      0.68609552
O      -2.71823617      1.08917549      0.55127423
H       3.42890619      0.50505872      0.26537700
H       1.96309858      1.50727047      0.15849770
H       2.20866751      0.46887089      1.55736284
H      -0.18035764     -1.58480187     -0.72036669
H      -0.21965632      0.87104027      1.12666575
H      -2.29405319     -0.61275442      1.67295590
H      -2.42834835     -0.88831663     -0.07200061
H      -3.64793765      0.99123028      0.77592339
