17
b3lypvtz=-217691.72375238
C      -1.44970939      1.15181634      0.53330095
C      -0.60964769      0.00000061      0.00000048
C      -1.44971636     -1.15181106     -0.53329753
O       0.25239082      0.44915941     -1.05540837
C       1.57508279      0.53648736     -0.53810171
C       1.57508365     -0.53648835      0.53809989
O       0.25239168     -0.44916254      1.05540704
H      -2.03837050      0.82395449      1.39016228
H      -2.12529718      1.51590655     -0.24053566
H      -0.80219716      1.96865559      0.84987141
H      -2.12530302     -1.51589851      0.24054135
H      -0.80220881     -1.96865303     -0.84987051
H      -2.03837909     -0.82394623     -1.39015660
H       2.27638660      0.35235235     -1.35086976
H       1.76825899      1.52792899     -0.11233476
H       2.27638758     -0.35235232      1.35086765
H       1.76826110     -1.52792967      0.11233284
