13
b3lypvtz=-239671.83621525
N       2.47452663     -0.63228365      0.80649169
C       2.19364326      0.25546413     -0.05430656
N       0.97613663      0.51883362     -0.66671465
C      -0.09818026     -0.40865205     -0.61427910
C      -1.25372684     -0.05560407     -0.04408717
N      -1.61104857      1.15972549      0.48064907
F      -2.27027887     -0.93140262     -0.00603576
H       1.65967503     -1.21059568      1.01796034
H       2.97308461      0.94906689     -0.37132230
H       1.03352789      1.10527353     -1.48669927
H       0.00678701     -1.39496015     -1.04767252
H      -0.82459960      1.76474283      0.66394546
H      -2.27291291      1.10847273      1.24064976
