13
b3lypvtz=-213754.95340938
N      -3.46612075      0.16106372     -0.13214151
C      -2.25148175      0.43620478      0.13170168
C      -1.08467315     -0.40831007     -0.08502801
C       0.14336654      0.00070825      0.23655108
O       1.22215616     -0.82159059      0.10367497
C       2.48699901     -0.28298321      0.00924138
N       2.84615439      0.89434988     -0.22992842
H      -3.54877483     -0.77540369     -0.53453975
H      -2.05171105      1.41760738      0.56898375
H      -1.22626990     -1.39345247     -0.51504746
H       0.33881109      0.97455866      0.67161099
H       3.20801569     -1.07804198      0.16449560
H       2.07938256      1.54209434     -0.39825329
