20
b3lypvtz=-182660.58497703
C      -2.65656849      0.27229313     -0.09498439
C      -1.19703998      0.71329679     -0.22539924
C      -0.24583721     -0.13858665      0.61107436
N      -0.02436176     -1.53015510      0.12741106
C       1.28246335     -1.15143242     -0.46018715
C       1.28356911      0.11681396      0.42359459
C       1.79988302      1.42385455     -0.14931401
H      -3.31463330      0.89904557     -0.69875699
H      -2.79863408     -0.75960631     -0.42364193
H      -2.99367217      0.33502254      0.94186168
H      -0.89782154      0.68420967     -1.27732282
H      -1.10772862      1.75678728      0.09264339
H      -0.58306525     -0.11353782      1.65282279
H      -0.71458354     -1.87408811     -0.52963862
H       2.07900336     -1.88002719     -0.29535923
H       1.24896371     -0.90888695     -1.52912448
H       1.79323015     -0.09493235      1.36438419
H       1.32302583      1.67453843     -1.09806360
H       2.87576268      1.36203850     -0.32923506
H       1.63352873      2.25581346      0.53864647
