19
b3lypvtz=-171829.52194737
C       3.23781494     -0.00009907      0.00012804
C       1.78063123     -0.00034937     -0.00036985
C       0.57819061     -0.00027401     -0.00060108
C      -0.89224803     -0.00018006     -0.00036641
C      -1.40526218      0.37296758     -1.40693795
C      -1.40477994      1.03175209      1.02599714
C      -1.40503523     -1.40474822      0.38058698
H       3.63300188      0.25976819     -0.98415255
H       3.63277867     -0.98244127      0.26754982
H       3.63221432      0.72268757      0.71750594
H      -1.05463121     -0.34265438     -2.15114823
H      -1.05462224      1.36351303     -1.69794383
H      -2.49729885      0.37657092     -1.42059298
H      -1.05402401      2.03385530      0.77788983
H      -1.05407360      0.78891782      2.02940481
H      -2.49676996      1.04199132      1.03614059
H      -1.05457220     -2.15284272     -0.33105503
H      -2.49707105     -1.41845199      0.38458527
H      -1.05408914     -1.69029373      1.37261448
