17
b3lypvtz=-215274.26984079
C      -1.48078032     -0.99184225      0.42956059
N      -0.67741588      0.21472014      0.40801806
C      -1.37191345      1.33952428     -0.21666598
C       0.68354414      0.07544535      0.09424168
C       1.24657135     -1.05600516     -0.36028650
O       2.64103864     -1.16519094     -0.39174713
N       1.44147237      1.23648533      0.31708173
H      -1.66912167     -1.40615038     -0.57311341
H      -0.98958124     -1.75511852      1.03112088
H      -2.44741272     -0.76147585      0.87914340
H      -0.72843414      2.21377481     -0.22696669
H      -2.27442567      1.56884681      0.35166517
H      -1.66514665      1.11587135     -1.25355045
H       0.68464785     -1.93712578     -0.62793328
H       2.91639834     -1.37423508     -1.28914273
H       1.26388435      1.63635334      1.22962936
H       2.42667470      1.04612254      0.19894531
