14
b3lypvtz=-203713.75502211
C       3.34074056      0.23742913     -0.00000414
C       2.20764532     -0.46960032     -0.00001674
C       0.88980979      0.12815927     -0.00000330
C      -0.25853192     -0.55903102     -0.00001611
C      -1.56915022      0.14157413     -0.00001064
N      -2.65666814     -0.68621118     -0.00006516
O      -1.68262397      1.35652600     -0.00000955
H       4.30951804     -0.24280610     -0.00001234
H       3.32824932      1.32049138      0.00001425
H       2.25579895     -1.55447152     -0.00003862
H       0.82271929      1.21172787      0.00001684
H      -0.24997773     -1.64422142     -0.00003613
H      -3.57217106     -0.27148753     -0.00002479
H      -2.57338424     -1.68587168      0.00001442
