19
b3lypvtz=-195143.95493053
C      -1.66651150      1.18724388      0.41230679
C      -0.77190359      0.02400578      0.06201160
C      -1.53343497     -1.28015117      0.04313679
C       0.53833103      0.14889686     -0.21016336
C       1.30377091      1.45065429     -0.16100141
C       1.41967061     -1.01330820     -0.60131442
O       2.40672241     -1.31607903      0.39608316
H      -1.17952582      2.15492464      0.34076747
H      -2.53570840      1.20356704     -0.25222959
H      -2.06064816      1.07904649      1.42782445
H      -2.09913719     -1.39459638      0.97248258
H      -0.91044157     -2.16203067     -0.07367933
H      -2.27155633     -1.28308570     -0.76507362
H       1.48128477      1.83519028     -1.17086144
H       0.80897841      2.23144937      0.41006617
H       2.28316562      1.27889299      0.28802638
H       0.84629699     -1.90637148     -0.85051725
H       1.99895537     -0.74689806     -1.48854224
H       1.94169141     -1.49135094      1.22057726
