17
b3lypvtz=-194390.8831327
C      -2.36972194      0.04273979     -0.02472023
C      -0.89789491      0.06206854      0.33650711
C      -0.12096807      1.21732918     -0.28989380
C       1.35614609      1.15605269      0.11432550
C       1.84574905     -0.26277652      0.03464863
C       1.00672869     -1.28977634     -0.08563040
O      -0.35232956     -1.20652749     -0.08313779
H      -2.85728010     -0.83182505      0.40588762
H      -2.86564125      0.93686233      0.35573250
H      -2.49782806      0.00836914     -1.10776219
H      -0.78396690      0.11028301      1.42697627
H      -0.21295821      1.14367000     -1.37696689
H      -0.57373734      2.16388771      0.01135519
H       1.94989970      1.79667362     -0.54335426
H       1.49159229      1.55855305      1.12438754
H       2.90783758     -0.46579029      0.03644026
H       1.33525095     -2.31363036     -0.20631305
