14
b3lypvtz=-224576.28514762
C      -2.59616321      0.07051141      0.19380124
N      -1.29607733      0.33175845     -0.39593930
N      -0.44043496     -0.72893585     -0.33244472
C       0.82001742     -0.51829311     -0.27960174
N       1.38002979      0.74114466     -0.17035979
C       2.64455168      0.89027624     -0.20858764
O       1.67242632     -1.58714931     -0.32402935
H      -3.02997176     -0.80954160     -0.27936734
H      -3.24273782      0.92525523     -0.00367697
H      -2.56082499     -0.10333268      1.27686280
H      -0.86281955      1.20517223     -0.10977220
H       3.04825358      1.89240483     -0.09906044
H       3.34238084      0.06586554     -0.34595438
H       1.12136999     -2.37513605     -0.41012623
