15
b3lypvtz=-191205.13361674
C       1.44448602     -0.43628847     -1.08357184
C       0.52529854     -0.32187936      0.14057179
C       0.77091114      0.91616288      0.88355363
C       0.97656775      1.93170168      1.48981021
C      -0.96166616     -0.49444079     -0.21463972
N      -1.82376635     -0.17998532      0.81490612
N      -1.27094904     -0.98707146     -1.34635524
H       1.25063960      0.37283683     -1.78546925
H       2.48628918     -0.38657991     -0.76874816
H       1.26084721     -1.37700804     -1.59559459
H       0.75583601     -1.15176982      0.82000119
H       1.17300243      2.83089933      2.01857263
H      -1.50534688      0.49713844      1.49021943
H      -2.80276724     -0.11961059      0.58741829
H      -2.27958220     -1.09410541     -1.45047450
