20
b3lypvtz=-182663.03807471
C      -2.20014225     -1.03416161     -0.00288893
C      -1.56665758      0.13006831     -0.05331904
C      -0.06750641      0.35399087     -0.00079006
C       0.30720613      1.35422641     -1.12022751
C       0.27478701      0.96858863      1.36967759
N       0.61277843     -0.94191963     -0.14595461
C       2.06335429     -0.97387906     -0.01083602
H      -1.66242378     -1.96699293      0.09756161
H      -3.28052062     -1.08153834     -0.04361311
H      -2.14910452      1.04377366     -0.13409347
H       1.37571419      1.57253032     -1.11154032
H       0.04636409      0.94943735     -2.10012719
H      -0.22337353      2.30047710     -0.99687964
H       1.31919472      1.28012778      1.41861414
H      -0.34023314      1.85029410      1.55215900
H       0.08535615      0.24598940      2.16307806
H       0.34472533     -1.34783694     -1.03419149
H       2.35422919     -0.77634040      1.02103452
H       2.61065643     -0.27004340     -0.65441939
H       2.40847686     -1.97918760     -0.25379916
