17
b3lypvtz=-191957.511577347
C       3.50559404      0.11015407     -0.02064045
C       2.27340888     -0.42383766     -0.67084557
N       1.06932998     -0.10007668     -0.21761534
C      -0.18198704     -0.42419448     -0.59654027
N      -1.18595938      0.11395975      0.12500037
C      -2.42793366     -0.10875945     -0.12324270
C      -3.51582522      0.50434692      0.69587415
H       3.60127410     -0.18928115      1.03059376
H       4.38639318     -0.26807571     -0.53739392
H       3.56656674      1.20532675     -0.04924600
H       2.31817174     -1.08415808     -1.52244076
H       1.04242133      0.52383866      0.58579132
H      -0.30481354     -1.08799289     -1.44605579
H      -2.73007838     -0.76083222     -0.95079451
H      -3.08848813      1.12715864      1.48062119
H      -4.14744093     -0.26002175      1.16162710
H      -4.18063370      1.12244529      0.08253814
