11
b3lypvtz=-210586.83451882
N      -2.54900298      0.27956676      0.00012562
C      -1.48699536     -0.52759504      0.00013944
C      -0.16877005     -0.16074220      0.00005985
C       0.52684967      1.08326133     -0.00011110
N       1.80692607      0.84359239     -0.00002500
N       1.95128594     -0.55973022     -0.00015385
N       0.81971924     -1.14206881     -0.00004986
H      -3.48051677     -0.09431361      0.00054547
H      -2.45045381      1.28043676      0.00032503
H      -1.70219900     -1.58940173      0.00021104
H       0.13978806      2.09113338     -0.00029963
