15
b3lypvtz=-193587.34369718
C       2.46448669     -0.16041180      0.04518754
C       1.16652511     -0.00728031      0.24212472
C       0.06296544     -0.92625665      0.75316648
C      -0.93830179      0.10154665      0.20996292
C      -2.18609508     -0.11405854     -0.51362984
O      -2.17314509      0.41637099      0.82518247
C       0.18101859      1.11664473     -0.05631757
H       2.97051328     -1.08313962      0.30078639
H       3.06968206      0.63094675     -0.37946421
H       0.02154534     -1.93469378      0.34033564
H       0.02514968     -0.98778302      1.84379200
H      -2.49217339      0.58719214     -1.28396543
H      -2.58916641     -1.11788117     -0.60745501
H       0.19275407      1.90954298      0.69588372
H       0.22424150      1.56906066     -1.04748984
