18
b3lypvtz=-205210.62819441
C       3.59110198      0.17463490     -0.22438915
C       2.25507335      0.02238824      0.43681688
C       1.09354516     -0.01072992     -0.21790593
N      -0.18165676     -0.04045793      0.35448093
C      -1.22365882     -0.83707186     -0.29256585
C      -2.59447254     -0.33852176      0.14273471
O      -2.78345434      1.02571459     -0.18609557
H       4.26329989     -0.64955684      0.03128601
H       4.09448337      1.09606302      0.08435172
H       3.49523955      0.20076306     -1.31106724
H       2.24867198     -0.04125120      1.52216411
H       1.07678771      0.03994723     -1.30238886
H      -0.15201307     -0.18720468      1.35547131
H      -1.12804263     -1.91166781     -0.08318690
H      -1.12188943     -0.70159779     -1.37070690
H      -3.37530939     -0.90560489     -0.36580637
H      -2.72110875     -0.50299775      1.22320741
H      -1.95892226      1.47284640      0.04595571
