17
b3lypvtz=-191956.75316312
C       2.19040209     -1.30594426      0.01329242
C       1.69932446      0.09971454     -0.34922860
N       2.30199516      1.07902444      0.57276445
C       0.22939844      0.15740353     -0.40323961
C      -0.97143480      0.23414411     -0.41285967
C      -2.43017668      0.30287284     -0.44079107
N      -3.02430354     -0.35367878      0.73481229
H       1.81674875     -2.04328457     -0.69660170
H       1.83968398     -1.58726146      1.00803540
H       3.27969358     -1.32290449      0.01118699
H       2.07973646      0.34077549     -1.34632682
H       1.99969885      2.01368374      0.32075257
H       1.94705858      0.91525882      1.50986197
H      -2.77584133     -0.10781274     -1.40064219
H      -2.73792505      1.35226601     -0.42654869
H      -4.03507160     -0.32712226      0.66250320
H      -2.75461235     -1.33039198      0.75340507
