16
b3lypvtz=-202055.7528662
N       2.26530321     -1.28200150     -0.10977625
C       1.58854771     -0.20070982      0.00626072
N       2.12294257      1.08143908      0.08747226
C       0.11783413     -0.31175577     -0.00690364
C      -0.74409461      0.69712617     -0.12213537
C      -2.23910171      0.56721356     -0.13841810
N      -2.70416232     -0.78977479      0.12173226
H       3.26933173     -1.09987302     -0.09146449
H       1.58660440      1.75802449      0.60645959
H       3.10898616      1.12395788      0.29071591
H      -0.24267417     -1.32923876      0.04746651
H      -0.38435612      1.71552376     -0.23502756
H      -2.59817901      0.86332357     -1.13067343
H      -2.64819113      1.32079769      0.55470896
H      -3.70348710     -0.85762075     -0.02020305
H      -2.51850774     -1.05465577      1.08199466
