17
b3lypvtz=-240991.30374945
C      -1.94967722      1.33869711      0.13647661
C      -1.07017211      0.17652034      0.55296903
O      -1.79201283     -1.03089201      0.68537310
O      -0.03615969      0.06647633     -0.39984449
C       1.01173134     -0.83751366     -0.04469028
C       2.08705203     -0.71338841     -1.10236822
O       2.63423099      0.59468883     -1.16048774
H      -2.35353666      1.16054679     -0.86259699
H      -1.37635264      2.26496354      0.11141117
H      -2.77508322      1.44981074      0.83800784
H      -0.63838514      0.34072516      1.54622111
H      -2.26739484     -1.18620138     -0.13960471
H       1.41514482     -0.56320613      0.93737267
H       0.63423731     -1.86277434      0.00592205
H       2.90956632     -1.38917455     -0.86413515
H       1.67493106     -1.01102913     -2.07456375
H       1.89178047      1.20175076     -1.25396225
