12
b3lypvtz=-228830.99771123
C       2.61365817     -0.77226235     -0.00004108
C       1.51998470     -0.01400876      0.00002111
F       1.61779390      1.32139993      0.00003478
C       0.16369758     -0.54154385      0.00006229
N      -0.86523856      0.21044524      0.00015237
C      -2.11689564     -0.42871542      0.00015041
N      -3.22375731      0.18158398     -0.00012027
H       2.52187053     -1.84750623     -0.00007068
H       3.59987976     -0.33332181     -0.00007915
H       0.09755416     -1.63547255      0.00008244
H      -2.11635841     -1.52457819     -0.00004080
H      -3.05521087      1.19036400     -0.00009942
