14
b3lypvtz=-203670.32639037
C       1.07602884     -0.32957759      0.95371791
C       1.54802889      0.62874776      0.15726250
O       1.00416099      0.63137311     -1.10477267
C       0.03992617     -0.41226577     -1.14781235
C       0.02287645     -1.07406680      0.22420872
C      -1.17687710     -0.25278338     -0.28996035
N      -1.57459149      1.03043392      0.19985111
H       1.40081058     -0.52517926      1.96181827
H       2.28148513      1.39878198      0.33381291
H       0.01345353     -0.90990266     -2.10600407
H      -0.10804445     -2.13786047      0.36633163
H      -1.99821821     -0.88699757     -0.60653685
H      -0.97161150      1.76228417     -0.15266533
H      -1.55742784      1.07701254      1.21074859
