12
b3lypvtz=-200544.39242033
N      -2.30230212     -0.12694919      0.00016775
C      -1.02516326     -0.03800697      0.00003303
C      -0.18040583     -1.23664973      0.00004036
N       1.10804872     -1.24137809      0.00026212
C       1.77414139     -0.03131063      0.00013834
C       1.10232271      1.13878637     -0.00007120
N      -0.26734416      1.13768988     -0.00009072
H      -0.76196672      2.01553303     -0.00013039
H      -2.75990342      0.78356209      0.00022109
H      -0.71224445     -2.18180438      0.00045137
H       2.85279865     -0.06158837      0.00018150
H       1.58650349      2.10437600     -0.00010925
