18
b3lypvtz=-181910.26057255
C       2.31626884     -1.41108010      0.00004734
C       1.87781806      0.02082071     -0.00000487
C       0.63499117      0.53230767      0.00006125
C       0.40413651      2.01964582      0.00001835
C      -0.55997515     -0.31573356      0.00013934
N      -1.73158372      0.17658277      0.00004214
C      -2.85335356     -0.75317520     -0.00002116
H       2.93970145     -1.61702066      0.87511431
H       1.49689455     -2.12547472      0.00012576
H       2.93961956     -1.61711609     -0.87505519
H       2.69701994      0.73471050     -0.00010228
H      -0.17800100      2.32189975      0.87206480
H      -0.17816126      2.32182709     -0.87194511
H       1.34924584      2.56146384     -0.00008626
H      -0.40204126     -1.40054443      0.00010323
H      -2.84247837     -1.39750533     -0.88527213
H      -2.84217358     -1.39810000      0.88479421
H      -3.78930801     -0.19703305      0.00030627
