13
b3lypvtz=-190467.6410029
C      -1.82092956      0.36686039      0.06967599
C      -0.37061493     -0.01869060      0.02744172
C       0.65725494      0.90407179     -0.02726685
C       1.96173557      0.42391695     -0.08948710
N       2.27526166     -0.86833508     -0.09740116
N       1.29654620     -1.76608531     -0.03845261
C       0.03405468     -1.35850427      0.02203921
H      -2.22968787      0.43793270     -0.94152675
H      -1.96025882      1.33592695      0.54860154
H      -2.41280628     -0.37295749      0.60853482
H       0.46375044      1.96965063     -0.02021629
H       2.80567007      1.10182326     -0.13425511
H      -0.69997610     -2.15560993      0.07231257
