15
b3lypvtz=-191184.19023705
C       1.11927720     -0.87355526      0.34543444
C      -0.16821582     -0.66500351     -0.45624110
C      -1.63108669     -0.58705962      0.09978883
N      -1.68440051      0.83713670     -0.37954036
C      -0.27346902      0.83219602     -0.43447479
C       0.85589892      1.42601970     -0.04812568
N       1.86398890      0.41998816      0.20778165
H       0.90129530     -1.02695004      1.40691662
H       1.73415661     -1.70414057     -0.00030039
H      -0.14776262     -1.10069151     -1.45811832
H      -1.66252225     -0.67383927      1.18983076
H      -2.37895042     -1.23361757     -0.35669692
H      -2.14309042      1.53154099      0.19598761
H       1.04845016      2.45545060      0.21149445
H       2.56643065      0.36252520     -0.52373680
