21
b3lypvtz=-193504.93466638
C       2.30754695     -0.17299214     -0.12528442
C       0.85957449     -0.40332292      0.32918075
N       0.40785595     -1.78139899      0.05111658
C      -0.14439687      0.61258235     -0.26099094
C       0.31158755      2.06034135     -0.03504357
C      -1.57523031      0.43554236      0.30953594
N      -2.37450891     -0.69850889     -0.14604467
H       2.71047616      0.77954901      0.21927004
H       2.38041468     -0.19617013     -1.21648276
H       2.95136358     -0.96295412      0.26736370
H       0.82430103     -0.28927733      1.41851676
H       0.50161043     -1.97843493     -0.94098218
H       1.00840822     -2.44433046      0.52871386
H      -0.19643935      0.43770769     -1.34460591
H       1.25760264      2.28384201     -0.52620063
H      -0.43139618      2.75784878     -0.42471982
H       0.43142697      2.27279960      1.03109964
H      -1.50399241      0.38095656      1.40122852
H      -2.14185638      1.34465411      0.09230757
H      -1.82785489     -1.54426367     -0.02929153
H      -2.57623435     -0.60794625     -1.13543890
