13
b3lypvtz=-237082.0177692
C       2.65654788      0.12962351      0.00000972
O       1.48953075     -0.68503648      0.00001657
C       0.28884194     -0.07560178      0.00003987
N       0.07889063      1.19617833      0.00000413
N      -0.71911479     -1.01776487      0.00000768
C      -1.94101581     -0.60397388      0.00000252
O      -2.38010413      0.63298830     -0.00001174
H       2.70194584      0.75710473      0.89345813
H       3.49714203     -0.55792776      0.00000920
H       2.70194128      0.75709238     -0.89344706
H       0.90772051      1.77613719     -0.00000772
H      -2.73554047     -1.34496749      0.00000935
H      -1.54249465      1.21254282     -0.00001164
