18
b3lypvtz=-181911.83812509
C      -3.44165162      0.48668591     -0.46458473
C      -2.49406189     -0.46192798      0.28434164
C      -1.11709472      0.10073542      0.44458118
C       0.00692709     -0.44901985     -0.02329468
C       1.32050878      0.15060110      0.15639225
N       2.37698573     -0.38891800     -0.29531232
C       3.63889126      0.27998562     -0.06973658
H      -3.08397281      0.67603666     -1.47752550
H      -4.44375228      0.06084103     -0.53193388
H      -3.52136310      1.44838794      0.04607020
H      -2.44098630     -1.42218866     -0.23299154
H      -2.91386654     -0.66241974      1.27643513
H      -1.04770000      1.04485947      0.98191871
H      -0.01514603     -1.38739382     -0.56732647
H       1.34944983      1.10290533      0.70822275
H       4.30989155     -0.38910770      0.47442289
H       4.11525445      0.48543618     -1.03144037
H       3.54861457      1.22193610      0.48904431
