17
b3lypvtz=-215287.41384876
N      -2.58779827      0.80095064      0.87983739
C      -1.45366811      0.17509622      0.34064448
N      -1.71268396     -1.16925329      0.05905792
C      -0.28690773      0.80706567      0.12029755
C       0.88698403      0.23447072     -0.61901913
C       1.97465947     -0.34042766      0.29675831
O       3.06720755     -0.90854524     -0.42153704
H      -3.00911479      0.26937196      1.63070632
H      -2.41654487      1.75365761      1.16342981
H      -0.97144876     -1.64436127     -0.43109609
H      -2.60725269     -1.31449815     -0.38901572
H      -0.18070324      1.80646453      0.52512704
H       0.57703816     -0.55397998     -1.31245718
H       1.34367319      1.01285449     -1.24262792
H       2.32079217      0.43364216      0.99262085
H       1.56355667     -1.15179010      0.89856725
H       3.49221119     -0.21061831     -0.92939385
