15
b3lypvtz=-214520.97266038
C       3.03036787     -0.17680725     -0.04531388
C       1.57460099     -0.29822033      0.25359976
N       0.74153855      0.52595169     -0.24496306
N      -0.60886257      0.31510351      0.02290463
C      -1.40750876      1.52881319      0.07845729
C      -1.20018403     -0.91269016     -0.12251695
O      -2.38729132     -1.13076557     -0.00315734
H       3.39036212     -1.06623883     -0.56945913
H       3.22080453      0.69785635     -0.66367017
H       3.60610181     -0.10180984      0.88062296
H       1.25667071     -1.10433540      0.91805085
H      -1.17598054      2.09620592      0.98032357
H      -1.19408294      2.14802761     -0.79335710
H      -2.45382208      1.23802555      0.08906989
H      -0.47028733     -1.69328943     -0.38698931
