16
b3lypvtz=-181150.03805326
C      -3.39538396      0.19725069     -0.00009473
C      -2.23880246     -0.47250509      0.00009160
C      -0.93961041      0.16171656     -0.00006471
C       0.22492924     -0.50425048      0.00011167
C       1.55002790      0.14613004     -0.00006302
C       2.73179351     -0.79610430     -0.00013006
N       1.63579970      1.41980507     -0.00013477
H      -4.34792308     -0.31443555      0.00003952
H      -3.41843240      1.28019999     -0.00037972
H      -2.25342148     -1.55865801      0.00038066
H      -0.90615650      1.24640855     -0.00034711
H       0.21659256     -1.58963693      0.00037282
H       3.67481066     -0.25114503     -0.00049808
H       2.70317717     -1.44675866      0.87759867
H       2.70274433     -1.44720866     -0.87750825
H       2.60980822      1.71922481     -0.00027550
