13
b3lypvtz=-237016.59676272
C      -1.88071853     -0.76214556      0.14766181
C      -0.59264696     -0.40992583     -0.52649805
C       0.47522493     -0.00790429      0.15090440
O       1.65058002      0.31151659     -0.48150129
N       2.65503141      0.75293797      0.46324440
N       3.69612666      1.04149432     -0.07805773
O      -2.96507908      0.06949120     -0.27006463
H      -1.75654421     -0.73240101      1.23680762
H      -2.18867423     -1.77503375     -0.11796254
H      -0.55491406     -0.47702736     -1.60751194
H       0.51182685      0.08928900      1.22879370
H       3.65290375      0.91392360     -1.10352933
H      -2.70311657      0.98578512     -0.13313172
