13
b3lypvtz=-213756.01853141
C      -2.48542510      0.05003067     -0.44817182
N      -1.22436940      0.18112875     -0.55678567
C      -0.38150407     -0.36588680      0.39900145
C       0.96048840     -0.23590171      0.29958002
C       1.64104019      0.46069923     -0.77770752
N       2.90294337      0.60633246     -0.91125332
O      -0.98941957     -1.02908252      1.42309359
H      -3.11194097      0.49191841     -1.21714469
H      -2.97391295     -0.47998355      0.36814150
H       1.58388808     -0.68043330      1.07006023
H       0.99816597      0.89581456     -1.53929681
H       3.40474953      0.15837071     -0.14027273
H      -0.32470349     -1.37057715      2.03075579
