16
b3lypvtz=-204441.50826222
C      -0.65692366      1.87115338     -0.20460626
C      -0.63510112      0.57380055      0.09813203
C       0.61909397     -0.21117908      0.13912115
N       1.76186934      0.29437481     -0.06139228
C       2.91795353     -0.57042915      0.00717595
C      -1.88895815     -0.18376734      0.43633841
O      -2.04569157     -1.25243030     -0.50092991
H       0.26043939      2.40110776     -0.42030827
H      -1.58604719      2.42453590     -0.23998655
H       0.49728251     -1.28115156      0.35313343
H       2.67429990     -1.61702528      0.23555169
H       3.45222748     -0.53254772     -0.94514157
H       3.60605564     -0.19300342      0.76749146
H      -2.74847306      0.49322747      0.41132932
H      -1.80755887     -0.58528497      1.45549765
H      -2.70779015     -1.86218304     -0.16288524
