9
b3lypvtz=-230702.55365912
C      -1.16716811     -0.46212459      0.40951486
N      -2.11955235      0.30371281      0.14342038
N       0.22187469     -0.14225413      0.26300458
N       0.69976378      1.01627492     -0.17670704
N       1.97812030      0.88693677     -0.15436095
N       2.28993652     -0.35523258      0.30060784
N       1.20329854     -0.99029330      0.55829218
H      -1.29475834     -1.47060364      0.78729831
H      -1.81151502      1.21358375     -0.20122766
