14
b3lypvtz=-180326.89517785
C       3.16185130      0.12389750     -0.11923165
C       1.97529557      0.30766359     -0.07520356
C       0.56052210      0.52174727     -0.00826767
C      -0.34055196     -0.52191282     -0.64929785
C      -0.25994266     -0.42970897      0.85438976
N      -1.66148356     -0.04020993      0.95624019
C      -1.79254525     -0.06805012     -0.53538610
H       4.21062476     -0.03187160     -0.15949848
H       0.24522135      1.56079408     -0.05093342
H       0.05698489     -1.27333603     -1.31312084
H       0.21281313     -1.07980809      1.57725144
H      -1.81601734      0.86677596      1.38485877
H      -2.51601396     -0.82089996     -0.84951082
H      -2.03675838      0.88491911     -1.01228976
