16
b3lypvtz=-204458.7729241
C      -2.98457431     -0.35246062      0.30758258
C      -1.50050695     -0.15782286      0.28788995
C      -0.87379228      0.84156237     -0.32716655
C       0.61492172      1.09703817     -0.33884563
C       1.49860145     -0.08417962      0.01590744
N       2.41615006     -0.12564933      0.88185143
O       1.29094244     -1.20084104     -0.73503426
H      -3.26102674     -1.32339171     -0.11185007
H      -3.50147127      0.42358090     -0.25737765
H      -3.36390897     -0.33856977      1.33287313
H      -0.91756503     -0.89631514      0.83138399
H      -1.46772041      1.57987192     -0.85873323
H       0.90499802      1.43699463     -1.33972471
H       0.85136546      1.92477135      0.33444237
H       2.48897849      0.76531021      1.36342151
H       0.48691931     -1.08826846     -1.25513928
