14
b3lypvtz=-203669.48053897
C       1.66416545      0.22210760     -0.30684577
C       0.22787364     -0.02757459      0.03375011
C      -0.28245517     -1.21231388      0.86506390
C      -0.82755519     -0.97193209     -0.49149748
O      -1.85036748      0.06318337     -0.41467766
C      -0.87523354      0.98151256     -0.01005355
N      -0.94744664      2.21695329      0.16107312
H       1.75393053      0.80170800     -1.22652107
H       2.20346046     -0.71695492     -0.43800771
H       2.15549769      0.78288281      0.49022934
H       0.43689414     -2.01688066      0.95730878
H      -0.91619184     -1.05420430      1.72850135
H      -0.85418786     -1.63797098     -1.33959580
H      -1.88838418      2.56948377     -0.00872758
