13
b3lypvtz=-190468.71182899
C       2.33077779     -0.02802466      0.00001094
C       0.98800509     -0.05508068     -0.00000775
N       0.26974336     -1.24955252     -0.00002374
C      -1.02160650     -1.21713051     -0.00001160
C      -1.81696407     -0.02163527     -0.00000063
C      -1.12998260      1.14531175      0.00000129
N       0.22264968      1.13988584     -0.00000780
H       2.88230171      0.90110841      0.00002826
H       2.87418686     -0.95762634      0.00001046
H      -1.52558648     -2.18093740     -0.00004932
H      -2.89402856     -0.04947566      0.00000431
H      -1.60282437      2.11790832     -0.00000323
H       0.72015610      2.01410372     -0.00000218
