13
b3lypvtz=-242059.62535692
C      -2.85975836      0.64851790      0.79189961
N      -1.81911025      0.67773715      0.06025806
C      -0.65627041      0.06900483      0.46636417
F      -0.68113784     -0.56705297      1.67570830
C       0.46452565      0.06909796     -0.25300301
C       1.74272235     -0.58990004      0.13579797
O       2.80743018      0.32242503     -0.13839669
H      -3.75398545      1.14711945      0.43164038
H      -2.90558949      0.15245362      1.76072039
H       0.43175182      0.58733287     -1.20055399
H       1.72091132     -0.87519497      1.19084924
H       1.86751008     -1.50797297     -0.45565098
H       3.64110041     -0.13366786      0.00816655
