15
b3lypvtz=-219472.97017458
C       0.48785828      0.83620188     -0.17093132
C       0.23653574     -0.56258305      0.42730312
C       0.06556549     -0.98948202     -1.04392362
N       1.30480295     -0.06887957     -1.11893337
C       1.75267486     -0.75917770      0.18985333
C       2.42776636     -2.10521306      0.07284453
F       2.85640827     -2.48688650      1.34847651
H       1.09942152      1.53860252      0.39549586
H      -0.34152884      1.33869715     -0.66768393
H      -0.35878686     -0.84062529      1.30034764
H      -0.79268835     -0.59530952     -1.58770325
H       0.25205071     -2.02187840     -1.32987358
H       2.40824914     -0.11481904      0.78001107
H       1.78404691     -2.90024756     -0.30202760
H       3.30672381     -2.02259986     -0.57135537
