13
b3lypvtz=-192861.49538759
O       1.07800099      2.38826129     -0.12757687
C       0.74744794      1.22802284     -0.03863246
C       1.50921032      0.03572630     -0.50391789
C       0.87202389     -1.08424289     -0.14347424
C      -0.41771953     -0.79815601      0.54999560
C      -1.44223965     -0.09346859     -0.30962351
C      -0.51943417      0.70061574      0.59610995
H       2.42817641      0.11247132     -1.06500039
H       1.20084957     -2.09208833     -0.35951710
H      -0.75378135     -1.42716933      1.36177304
H      -2.47990857     -0.14632415     -0.00791945
H      -1.27421373     -0.06558593     -1.37777091
H      -0.94831211      1.24193774      1.42555423
