13
b3lypvtz=-234667.77108363
C      -0.74369243      1.60815359     -0.01463809
N      -0.26030847      0.23471035     -0.00130854
N      -1.10491074     -0.80790879      0.01205886
N      -2.31501779     -0.49619571      0.00634860
C       1.13025323     -0.04405601      0.00499676
N       1.44583434     -1.36231722     -0.01938322
O       1.94446920      0.85629256      0.01783620
H      -1.36121213      1.79263445      0.86413901
H      -1.35688027      1.77719135     -0.89952584
H       0.12648990      2.25383191     -0.01774815
H      -2.82341540     -1.38251448      0.01944926
H       0.73146391     -2.06384914      0.04812755
H       2.41677965     -1.59757984      0.06886360
