19
b3lypvtz=-195141.31143392
C      -1.35891638      0.31434365     -1.18664862
C      -0.86997188     -0.19402034      0.18221811
C      -1.10646189      0.86560020      1.26759544
C       0.57113681     -0.68201001      0.14279403
C       0.85736746     -1.98216989      0.09096407
C       1.69789734      0.32354734      0.18439412
O       1.67904119      1.26520595     -0.89285566
H      -0.82273274      1.21429207     -1.48502185
H      -1.21715036     -0.44322540     -1.95910419
H      -2.42417710      0.55097509     -1.14047502
H      -1.47825293     -1.06694486      0.43565146
H      -0.58191726      1.79446858      1.03823336
H      -2.17021274      1.09838880      1.33965705
H      -0.77394028      0.51774982      2.24735161
H       0.08103829     -2.73786418      0.09425849
H       1.87997040     -2.33770142      0.05198201
H       2.65551592     -0.20569565      0.21863987
H       1.63198143      0.93251150      1.08720054
H       1.74978470      0.77254878     -1.71683480
