18
b3lypvtz=-205245.4893138
C      -2.54304807     -0.65315778      0.41965918
C      -1.32399128     -0.04883304     -0.25394573
O      -1.42454007      0.61576243     -1.27169977
N      -0.13081443     -0.30929883      0.35286870
C       1.15493208      0.17789875     -0.14160564
C       1.81781585      1.09161755      0.89068396
C       2.05896757     -0.98943308     -0.54279433
H      -2.32102070     -1.17149151      1.35277686
H      -3.01108001     -1.35367903     -0.27221668
H      -3.26197698      0.14224973      0.61405654
H      -0.13389686     -0.86151832      1.19402310
H       0.90687644      0.75930287     -1.02854354
H       2.03204457      0.54861358      1.81554960
H       1.17194929      1.93551116      1.13271994
H       2.76312133      1.48120646      0.50983181
H       2.29324909     -1.61956900      0.31972954
H       3.00230404     -0.62327163     -0.95095767
H       1.57722113     -1.61060330     -1.29779785
