11
b3lypvtz=-212987.48543353
N       2.68644589     -0.28970867     -0.00001680
C       1.70328876      0.51535717      0.00000864
C       0.27631777      0.20461296      0.00001968
C      -0.76098441      1.08833383     -0.00005731
O      -1.93258114      0.45064125     -0.00008188
N      -1.69197133     -0.93201036      0.00015823
C      -0.39692596     -1.05626598      0.00006194
H       2.37824743     -1.26379578     -0.00002584
H       1.93945707      1.58106012      0.00000582
H      -0.80263455      2.16499593     -0.00010202
H       0.02580845     -2.04899947      0.00025454
