16
b3lypvtz=-202046.88431246
C      -2.65685700     -0.84767428     -0.26788818
C      -1.62107530     -0.04133331      0.02547314
N      -1.70182185      1.35741934      0.04046486
N      -0.35503842     -0.52271404      0.33456029
C       0.84727553      0.10921405     -0.02433100
C       2.05569410     -0.44629350      0.09752955
N       3.28539270      0.21697511     -0.10619104
H      -3.66084045     -0.45758068     -0.33769840
H      -2.51091446     -1.90358148     -0.43982338
H      -2.63451862      1.69387476     -0.14182180
H      -1.31782799      1.77665676      0.87747642
H      -0.31388614     -1.52118656      0.45675278
H       0.72547832      1.12005405     -0.38811092
H       2.16006416     -1.46348036      0.46059087
H       3.17340833      1.12964184     -0.52730830
H       3.93518011     -0.32395070     -0.66166387
