13
b3lypvtz=-213724.67375548
C      -1.71609303      0.38296867     -0.27288539
N      -0.33005117     -0.05184228     -0.31440762
C      -0.01401826     -1.33477581      0.08840057
N       1.15383177     -1.81573526      0.25837525
O       2.22194663     -0.88725044     -0.11852109
C       1.92356552      0.42777511      0.14398319
C       0.68346786      0.88304598      0.02274999
H      -1.85397418      1.21675185     -0.96050859
H      -2.35993818     -0.43101981     -0.60078421
H      -2.03107273      0.70037418      0.72875701
H      -0.83439994     -2.00569336      0.31741364
H       2.76960650      1.02036287      0.45879446
H       0.38712923      1.89493828      0.24873280
