16
b3lypvtz=-209463.11242796
C       3.29613217     -0.25857880     -0.00000138
C       1.89608664      0.26347007     -0.00000043
C       0.80000159     -0.49906629      0.00000650
C      -0.56077463     -0.00147879      0.00000633
F      -0.65895231      1.35638946     -0.00000486
C      -1.67627914     -0.73245812      0.00000757
C      -3.07199056     -0.19983219     -0.00000005
H       3.84745011      0.09622778     -0.87570236
H       3.84745490      0.09623756      0.87569262
H       3.32293077     -1.34862147      0.00000461
H       1.77680006      1.34118226     -0.00000562
H       0.88941832     -1.58012927      0.00001245
H      -1.54047890     -1.80687542      0.00001401
H      -3.62425546     -0.54886194     -0.87701582
H      -3.62426027     -0.54884749      0.87701847
H      -3.08616231      0.88788366     -0.00000903
