15
b3lypvtz=-191178.33517832
C       1.85755077     -0.16061650     -0.02121773
C       1.05841984      1.08021731     -0.45348422
C      -0.20224920      0.67658367     -0.53827771
C      -0.37709979     -0.74841953     -0.14725521
N       0.85757866     -1.12124941      0.55906906
C      -1.74863707     -0.25726204      0.43129421
N      -1.56034474      1.06670060     -0.27234031
H       2.36768019     -0.64616534     -0.85989967
H       2.62119758      0.08144337      0.71941488
H       1.47185427      2.07374949     -0.53675991
H      -0.55473547     -1.42526647     -0.98993975
H       0.75079516     -0.89234696      1.54238763
H      -2.62779174     -0.82569674      0.13050957
H      -1.75361484     -0.10889668      1.51218101
H      -2.16060362      1.20722524     -1.07568187
