11
b3lypvtz=-236273.2820595
N       2.13097772     -0.14355931     -0.40747022
C       0.82077670      0.15188386     -0.14721078
N       0.51055710      1.15773350      0.58058062
O      -0.90222556      1.49285283      0.58428626
C      -1.72750632      0.42781942      0.38065413
C      -1.32920699     -0.65937013     -0.25620864
O      -0.02315924     -0.72189538     -0.76031838
H       2.34896443     -1.12700059     -0.44984609
H       2.78996960      0.41737259      0.10853779
H      -2.71708947      0.55728782      0.79303655
H      -1.90225799     -1.55312461     -0.42614125
