12
b3lypvtz=-254548.33854732
O       2.32930474     -1.26672223      0.00001355
C       2.11943864     -0.08431865      0.00000334
C       0.70984417      0.52488966     -0.00002754
O       0.61712053      1.73143725      0.00003508
C      -0.45679230     -0.42259245     -0.00001316
C      -1.79374068      0.29115612      0.00002459
F      -2.81218527     -0.65985161      0.00007579
H       2.92027863      0.67913806      0.00002183
H      -0.36805371     -1.08331119     -0.86766735
H      -0.36800364     -1.08329109      0.86765295
H      -1.91410379      0.91535424      0.88568354
H      -1.91417133      0.91532988     -0.88564261
