18
b3lypvtz=-205233.85883359
C      -1.19596466      0.73548095     -1.12571091
C      -0.57468413      0.44671921      0.24322347
C      -1.34846468     -0.62525454      1.01492370
N       0.85536363      0.11341277      0.13287296
C       1.27321532     -1.07072969     -0.59299843
C       1.77897166      0.92466764      0.71777910
O       1.54655452      1.93754379      1.34794104
H      -1.23535924     -0.15600802     -1.75490085
H      -0.63342219      1.50595236     -1.65363105
H      -2.21949997      1.09094061     -0.99967670
H      -0.58436246      1.36536802      0.82705672
H      -0.89154857     -0.81025352      1.98751194
H      -1.39611459     -1.57006135      0.46979113
H      -2.37406669     -0.29299217      1.18111843
H       2.35939908     -1.14201297     -0.56207898
H       0.86304990     -1.98116525     -0.15093577
H       0.96798744     -1.03069700     -1.64072142
H       2.80904564      0.55918918      0.55853560
