10
b3lypvtz=-251347.30081725
F       2.38164143      0.51827102     -0.00007637
C       1.61288838     -0.63747601     -0.00006320
C       0.16450757     -0.26312233     -0.00007303
N      -0.78929531     -1.14712082     -0.00002762
O      -1.95815188     -0.43135443     -0.00004447
N      -1.71243693      0.91148406     -0.00008022
C      -0.41844282      1.03411963      0.00010838
H       1.86598562     -1.21774155      0.88834987
H       1.86599476     -1.21778653     -0.88844303
H       0.05938617      1.99779295      0.00011070
