15
b3lypvtz=-193614.58318063
O       3.59169281      0.82333043     -0.52183379
C       2.45696892      0.40635563     -0.61736956
C       1.43780627      0.54237582      0.42022110
C       0.20109139      0.05723867      0.28702223
C      -0.56462622     -0.63058944     -0.83175087
C      -1.88148506     -0.26698561     -0.08395104
C      -1.03152436      0.12442607      1.16115445
H       2.13020974     -0.12059556     -1.53678839
H       1.73448889      1.06435302      1.32358513
H      -0.43392606     -0.24147374     -1.84053718
H      -0.38116415     -1.70701483     -0.85494577
H      -2.38457861      0.59032537     -0.52719116
H      -2.60308764     -1.06965069      0.05030707
H      -1.23972018      1.08015076      1.64215414
H      -1.03204577     -0.65204590      1.92992363
