12
b3lypvtz=-200552.04371237
N       2.64626171     -0.32618794     -0.00001523
C       1.70100079      0.52166107     -0.00001014
C       0.26838054      0.23131304     -0.00001095
C      -0.77232372      1.12933192      0.00000743
N      -1.91269826      0.36880525     -0.00000491
H      -2.85767733      0.71270666     -0.00004289
C      -1.52507103     -0.94137261      0.00000338
N      -0.22527194     -1.05779266      0.00001388
H       2.25494226     -1.27199472     -0.00000151
H       1.96301104      1.58189977     -0.00002332
H      -0.79512769      2.20453746      0.00004522
H      -2.23516638     -1.75221026      0.00001504
