12
b3lypvtz=-223820.58702811
N       2.32171600     -1.00983617      0.40794427
N       1.92959902     -0.19621153     -0.43542107
C       0.67131706      0.45908789     -0.08026824
O       0.71537117      1.65018578      0.14484840
C      -0.49842536     -0.39031733     -0.12839722
C      -1.72351446      0.16253556      0.03029919
N      -2.90724920     -0.48232738      0.02438917
H       3.22533591     -1.38007919      0.07239662
H      -0.36547338     -1.45250763     -0.27868569
H      -1.78234643      1.23554810      0.17320603
H      -3.76234327      0.01118138      0.19718226
H      -2.95580506     -1.48275450     -0.05326674
