20
b3lypvtz=-182663.19402337
C      -1.53683650      1.45464095      0.37828043
C      -0.99083192      0.17027352     -0.25461981
C      -2.09340565     -0.87453056     -0.45547179
C       0.12881656     -0.40476250      0.58810456
N       1.04217175     -1.36538155     -0.05145175
C       1.57235355     -0.07953138      0.43471875
C       2.13844454      0.86702943     -0.59251843
H      -1.95138990      1.25633251      1.37037068
H      -2.33415059      1.88330627     -0.23153329
H      -0.75559020      2.20867459      0.48952749
H      -0.58232055      0.41402704     -1.23759471
H      -2.54725181     -1.15351591      0.49967143
H      -2.88738331     -0.49015766     -1.09870460
H      -1.68898928     -1.77686095     -0.91523248
H      -0.18312139     -0.64032409      1.60445207
H       1.27976009     -2.12273022      0.57909366
H       2.14715207     -0.11606992      1.35642825
H       1.55651546      0.85212658     -1.51225498
H       2.16141113      1.89055711     -0.21129011
H       3.16191996      0.58166474     -0.84530738
