14
b3lypvtz=-203686.12444966
C       2.36602155      0.17883320     -0.11780067
C       1.05325034      0.09474179     -0.02417680
C      -0.10253827      1.00664406     -0.41922011
N      -1.00091399     -0.01132838      0.15390098
C      -2.32462296     -0.23479558      0.03865885
O      -2.88785790     -1.24821456      0.40310172
C       0.07861117     -0.93890796      0.52337878
H       2.84792925      1.04224596     -0.55844118
H       3.00900915     -0.61377614      0.24276369
H      -0.13534321      1.97312142      0.08980848
H      -0.22656421      1.16144252     -1.49457313
H      -2.85661873      0.62044567     -0.41848690
H       0.03664718     -1.88976453     -0.01359117
H       0.14299063     -1.14058746      1.59477746
