14
b3lypvtz=-180359.68116106
C       2.91651305     -0.47048551     -0.25045563
C       1.74513651     -0.27578278     -0.42396391
C       0.32173121     -0.04422420     -0.63708203
C      -0.59342070     -1.02108932      0.15788198
N      -1.80440809     -0.21946484      0.41980939
C      -1.39717618      1.12154526      0.40118959
C      -0.20845852      1.30637156     -0.17211386
H       3.95294098     -0.63733040     -0.09585205
H       0.12081408     -0.15941996     -1.71075552
H      -0.82537986     -1.92411446     -0.40359196
H      -0.09474539     -1.30185705      1.09114302
H      -2.33091001     -0.50095420      1.23426208
H      -2.06804804      1.87882449      0.78024798
H       0.26541095      2.24798141     -0.39071907
