15
b3lypvtz=-193580.91850218
C       3.06583461      0.64953058      0.26704079
C       2.12069152     -0.07842282      0.13971802
C       0.95200682     -0.93236665     -0.03076905
C      -0.15636412     -0.24745922     -0.82740990
C      -0.99182282      0.84706827     -0.13673883
C      -2.19037697     -0.06404009     -0.45042162
O      -1.31735573     -1.10334920     -0.95912307
H       3.90833979      1.28418463      0.38343530
H       0.55730566     -1.23078132      0.94432722
H       1.23324779     -1.85198840     -0.55182679
H       0.22613039      0.04348916     -1.81030422
H      -0.98874913      1.82402708     -0.61306782
H      -0.77534216      0.96434197      0.92346647
H      -2.86262388      0.30789152     -1.22770688
H      -2.78092174     -0.41212550      0.39883295
