12
b3lypvtz=-226237.62631281
O      -2.11423827     -0.50252569     -0.61399697
C      -1.62864317      0.38623465      0.02771760
C      -0.26984351      0.34422875      0.69652744
C       0.77898836      1.21740164     -0.06703996
N       1.71800517      0.23671392     -0.62581185
C       1.36804410     -0.88872574     -0.17561587
O       0.29129083     -0.97762472      0.64999983
H      -2.14735308      1.36122156      0.15899861
H      -0.38114380      0.64324836      1.74060373
H       1.30885481      1.90274037      0.59547322
H       0.33086561      1.81065707     -0.86585231
H       1.85746194     -1.83120816     -0.37842046
