17
b3lypvtz=-194381.45941505
C       0.04362477      1.60254029     -0.35720373
C      -0.32805703      0.36437315      0.00339300
C       0.50321577     -0.82660607     -0.20507254
C       1.83613115     -0.89083445     -0.08202107
O       2.67933699      0.12019835      0.22915906
C      -1.67424484      0.12952062      0.65744710
C      -2.68917665     -0.54737276     -0.27524433
H       0.94236056      1.79723124     -0.92900916
H      -0.58644920      2.45690815     -0.14647864
H      -0.00017426     -1.76722882     -0.38721890
H       2.37059396     -1.82429650     -0.19895527
H       2.15436922      0.90998637      0.42705108
H      -2.07851920      1.08669732      0.99149700
H      -1.53974076     -0.48902578      1.54932877
H      -3.63975857     -0.69853093      0.23856035
H      -2.87380745      0.06695048     -1.15752462
H      -2.34043443     -1.52331266     -0.61552912
