17
b3lypvtz=-191970.29808062
C      -2.09031527     -0.38102860      0.44988347
C      -1.82824400      1.08745236      0.44322233
C      -0.91517597      0.16317768     -0.33623000
C       0.48529878     -0.08595521      0.11842903
N       0.89449106     -0.15814051      1.31980124
C       1.49207289     -0.26339983     -1.00988598
N       2.87108030     -0.51800567     -0.63940364
H      -2.93270900     -0.76171944     -0.11002891
H      -1.85769081     -0.93772544      1.34800681
H      -1.41588429      1.53768180      1.33634885
H      -2.48731710      1.73103905     -0.12210031
H      -1.03869247      0.18032460     -1.41154976
H       0.13917062     -0.02353864      1.99322264
H       1.44890406      0.63321744     -1.63873734
H       1.13671210     -1.07751338     -1.65141756
H       3.18965889      0.22561817     -0.02713757
H       2.90864021     -1.35148437     -0.06242328
