12
b3lypvtz=-226217.39913478
O      -0.17070051      1.96637569     -0.46517717
C       0.06757651      0.64260831     -0.18131199
C      -0.58679802     -0.51291785     -0.94916588
C      -0.84547872     -0.33074763      0.51706499
N       0.28926318     -0.80605394      1.31931876
C       1.19295078      0.05825922      0.67364672
O       2.37495044      0.21433586      0.78010554
H       0.37067992      2.22666132     -1.21875425
H      -0.00396977     -1.35545113     -1.30090283
H      -1.37424424     -0.18078151     -1.61517252
H      -1.80652758     -0.13599659      0.96626920
H       0.49239802     -1.78619176      1.47417943
