13
b3lypvtz=-213720.69669456
C      -3.34141669      0.09833743     -0.00000111
C      -2.07077022      0.46667342      0.00000040
O      -1.06507757     -0.47177511     -0.00000081
N       0.18884613      0.11449483      0.00000168
C       1.11928668     -0.75569864      0.00000053
C       2.53287930     -0.32135918      0.00000282
N       2.98003107      0.86574653     -0.00000064
H      -3.63421406     -0.94173561     -0.00000401
H      -4.11196196      0.85318447      0.00000027
H      -1.71627561      1.48765004      0.00000227
H       0.89246912     -1.81971836     -0.00000055
H       3.25488353     -1.13855303      0.00000048
H       2.20925728      1.53821621     -0.00000136
