15
b3lypvtz=-219530.23245348
C      -0.47722129     -1.81610691      0.44552345
C      -0.73341528     -0.57308753      0.03751337
F      -1.96517005     -0.33923490     -0.50421249
C       0.09080172      0.62736433      0.07746035
C      -0.61920134      1.95007353      0.23860088
C       1.43398066      0.58441209     -0.04680953
N       2.24643082     -0.52405639     -0.17766012
H       0.43543764     -2.04817320      0.97072605
H      -1.21246364     -2.59540403      0.31214824
H      -1.30546162      2.14329109     -0.58748604
H       0.10045484      2.76765900      0.27864631
H      -1.21149660      1.97970185      1.15701987
H       1.98068745      1.51924023     -0.00919197
H       1.79075428     -1.37107198     -0.48832407
H       3.12714140     -0.35660519     -0.63677130
