21
b3lypvtz=-172599.36090502
C       2.66594873      0.30920449     -0.16777934
C       1.50455488     -0.66381575      0.05209421
C       0.25704231      0.02643390      0.55952595
C      -0.73228594      0.67480036     -0.37773652
C      -1.32730270      2.03143323     -0.08402905
C      -1.13616194     -0.54720273      0.40787507
C      -1.41815657     -1.87254750     -0.26204671
H       2.92764349      0.82504812      0.75872973
H       3.55844954     -0.20998752     -0.52165879
H       2.40529149      1.07022375     -0.90600188
H       1.81004994     -1.43592026      0.76588114
H       1.29131437     -1.18481775     -0.88368719
H       0.41853493      0.56601882      1.48857933
H      -0.54173416      0.48893281     -1.43097164
H      -2.28966879      2.16309816     -0.58504153
H      -1.49383347      2.16116334      0.98738984
H      -0.66784483      2.83777290     -0.41441468
H      -1.79216465     -0.34440238      1.24851012
H      -2.45600823     -1.92016447     -0.60020873
H      -0.78549229     -2.03468867     -1.13475456
H      -1.25659711     -2.70889585      0.42258322
