11
b3lypvtz=-210599.71495399
N      -2.37510582     -0.40053414      0.00008749
N      -1.61898663      0.60072075      0.00016683
C      -0.27478490      0.29812706      0.00005670
C       0.81170275      1.14804089     -0.00000975
N       1.97270262      0.43494517      0.00013856
C       1.60450407     -0.83341627     -0.00001174
N       0.26051131     -0.97482751      0.00001627
H      -0.29149053     -1.81697555      0.00001226
H      -3.33672603     -0.04408059     -0.00011070
H       0.79473436      2.22486748     -0.00013206
H       2.27760178     -1.67564829     -0.00012887
