14
b3lypvtz=-226995.12668973
C       0.68480670      1.45385463      0.78170980
C       0.42408827      0.64633954     -0.47996058
C       1.09032371     -0.72503922     -0.51806688
O       2.07015934     -1.01119591      0.11704454
O      -0.96560162      0.55662563     -0.84166574
C      -1.81198119     -0.21866867     -0.11043485
N      -1.61240323     -0.97645741      0.87499767
H       0.28337850      2.45943990      0.66577202
H       1.75888476      1.51757481      0.94913388
H       0.23305286      1.00032844      1.66178207
H       0.85609433      1.17864040     -1.33458464
H       0.62977398     -1.43425980     -1.23416659
H      -2.81144624     -0.10947701     -0.52304786
H      -0.65125617     -1.01616235      1.20391016
