15
b3lypvtz=-214481.26017112
C      -1.18358579      1.45055191     -0.25544237
C      -0.46427530      0.15371706      0.04236894
C      -1.21534018     -1.13946608      0.04026209
N      -0.82236968     -0.50481554      1.30181038
C       0.95632208      0.11185532     -0.39115518
N       1.82252281     -0.50991210      0.29566472
O       3.09306744     -0.46629279     -0.29898829
H      -0.71157404      2.28495785      0.26697501
H      -1.17482435      1.66832779     -1.32591391
H      -2.21826773      1.38702835      0.07675243
H      -0.68551546     -2.02759812     -0.28171038
H      -2.27802750     -1.12863949     -0.17275204
H       0.00180519     -0.96456021      1.67829419
H       1.23856826      0.62682853     -1.30914620
H       3.64149423     -0.94198248      0.33298062
