20
b3lypvtz=-182663.26790006
C      -2.18137483     -0.89399489     -0.58207085
C      -1.45618819     -0.43263194      0.68255890
C      -0.24429337      0.48652356      0.45171656
N      -0.68418221      1.72641409     -0.20520455
C       0.83989108     -0.15232601     -0.38850987
C       1.83184132     -1.08999864      0.23911214
C       2.27382089      0.27726552     -0.21575103
H      -2.48339667     -0.04228426     -1.19039832
H      -3.07441096     -1.46592655     -0.32469592
H      -1.54893633     -1.53696106     -1.19607942
H      -2.16263939      0.10018435      1.32823277
H      -1.11957604     -1.30029666      1.25581245
H       0.19538905      0.67956144      1.44378752
H       0.11031849      2.33141864     -0.37737266
H      -1.32349512      2.23820519      0.39256969
H       0.53913886     -0.37991783     -1.40328962
H       2.15773883     -1.95035320     -0.32856364
H       1.76042453     -1.26331994      1.30491175
H       2.49353284      1.01017702      0.55030379
H       2.90170420      0.34895217     -1.09294770
