16
b3lypvtz=-202043.93888339
C       2.16923828     -0.44086980      0.93392253
C       1.62563060     -0.87069042     -0.20928136
N       0.35865494     -0.58218382     -0.69507220
C      -0.39952402      0.53933023     -0.22027768
N       0.10807269      1.86893845     -0.33961924
C      -1.61401881      0.32867925      0.30259368
N      -2.25408304     -0.89758593      0.38716483
H       3.15820352     -0.76902120      1.21370825
H       1.63975107      0.20471155      1.62141235
H       2.18782211     -1.53860440     -0.85286469
H       0.21198717     -0.83525326     -1.66107650
H       0.22154450      2.13613101     -1.31254928
H       1.02235767      1.95241997      0.09147096
H      -2.18767502      1.18553206      0.62850740
H      -2.90251092     -0.99058790      1.15233467
H      -1.63168274     -1.68870780      0.30283228
