17
b3lypvtz=-191957.23822167
C      -3.49838471     -0.37386374      0.28709061
C      -2.29583751     -0.49103628     -0.26134119
C      -1.31237507      0.63418811     -0.44343259
C      -0.04073659      0.41172508      0.32551907
N       1.07970624      0.30535709     -0.26825004
N       2.21757631      0.17560744      0.47530831
C       3.30318990     -0.49910001     -0.21556262
H      -3.86801045      0.58007407      0.64584874
H      -4.16022199     -1.22361496      0.39156291
H      -1.96064168     -1.46476640     -0.60731782
H      -1.77785778      1.57288415     -0.12579789
H      -1.04538354      0.73629346     -1.49779552
H      -0.11750783      0.34510923      1.41751056
H       2.05767013     -0.17114567      1.41838142
H       3.09112446     -1.55086005     -0.44480143
H       4.19670065     -0.44779231      0.40653703
H       3.50118546      0.02185978     -1.15070953
