16
b3lypvtz=-227751.45634732
C       2.22483160     -1.16920918     -0.19000763
O       1.05312386     -0.65339181      0.43261910
C       0.46857485      0.42956622     -0.24306263
O       1.27743274      1.58553428     -0.20352456
C      -0.90464235      0.66764332      0.38882102
C      -1.84668194     -0.49536843      0.21745434
N      -2.97002024     -0.49442477     -0.36730377
H       1.99982627     -1.54832819     -1.19257573
H       2.57459530     -1.99035718      0.43138944
H       3.00446203     -0.40866564     -0.26311316
H       0.37174698      0.20427886     -1.31111224
H       1.38018614      1.84706774      0.71967637
H      -1.33400816      1.57170795     -0.04518390
H      -0.74369661      0.84180464      1.45892887
H      -1.50341081     -1.43891573      0.64349171
H      -3.19157866      0.43656592     -0.73022425
