15
b3lypvtz=-191207.03271141
C      -2.97179158      0.75289938     -0.05994186
N      -1.76190795      0.46311290      0.19150460
C      -1.25566346     -0.74568814     -0.28982334
C       0.00323940     -1.13394422     -0.06601918
C       1.03203518     -0.35519823      0.69811752
C       2.26645278     -0.07753781     -0.13132861
N       2.79102720      1.04476612     -0.38320466
H      -3.63816279      0.09898651     -0.63454618
H      -3.38255555      1.68994462      0.30396556
H      -1.92719463     -1.38615564     -0.86401194
H       0.31423093     -2.08763770     -0.47813211
H       1.34851864     -0.94966013      1.56563407
H       0.60491466      0.57600392      1.06672195
H       2.75594418     -0.96035777     -0.55285444
H       2.25560099      1.80172819      0.04918761
