12
b3lypvtz=-202908.04738448
C      -0.71035413      1.58363557      0.31542425
C      -0.41203971      0.31921287      0.10150634
C      -1.02517505     -0.86657686     -0.59950339
O       0.12526330     -1.68640670     -0.23616910
C       0.75281603     -0.59066534      0.46876018
C       2.06771383     -0.23269071     -0.06798880
N       3.10124848      0.06726771     -0.47430673
H      -1.63127533      2.01446105     -0.05562577
H      -0.04252076      2.23679778      0.86170416
H      -1.94916463     -1.25841103     -0.16750541
H      -1.13171009     -0.78115945     -1.68346042
H       0.85519806     -0.80536489      1.53716469
