16
b3lypvtz=-181111.67623421
C       2.57548371      1.81715828     -1.02168806
C       2.06369766      0.77329991     -0.72480560
C       1.42698861     -0.48799024     -0.35255137
C       0.07091562     -0.30381623      0.30604360
C      -0.94863867     -1.41156875      0.26243071
C      -1.16838683     -0.14599915     -0.52504650
N      -2.17750508      0.76373503     -0.04503497
H       3.03344525      2.73737564     -1.28500960
H       1.32024259     -1.11131530     -1.24548174
H       2.09155403     -1.03810797      0.32112758
H       0.08281862      0.28768427      1.21212131
H      -1.56746332     -1.55523820      1.13663271
H      -0.70357311     -2.31448826     -0.28140537
H      -1.02168952     -0.23085188     -1.60092083
H      -3.09270977      0.50990743     -0.39834133
H      -1.98517982      1.71021542     -0.35170939
