13
b3lypvtz=-237087.32481134482
C      -1.16535310      0.62282142     -0.34027553
C      -1.34008044     -0.76281974      0.26950160
O      -2.32317640     -1.44047371      0.31663332
O      -0.13854913     -1.15001326      0.77317583
C       0.87630132     -0.15842623      0.49172444
N       0.16195218      1.06006618      0.08887072
N       1.77727402     -0.72559487     -0.46963087
H      -1.24709036      0.54260632     -1.42770348
H      -1.95574967      1.28934493     -0.00267732
H       1.42967644      0.02749854      1.41115754
H       0.07797243      1.67502886      0.88791491
H       1.30933777     -0.90027920     -1.35250323
H       2.53748493     -0.07975924     -0.64618793
