17
b3lypvtz=-191953.43839453
C       2.03324639     -0.03456792     -0.47924170
C       0.60187334      0.28142248     -0.17543071
C      -0.49151555     -0.74505052      0.20255003
C      -1.14004824      0.32568855      1.13370557
C      -0.04513367      1.30640041      0.71022890
N      -0.01616145      1.47106197     -0.73921361
N      -1.33067372     -1.18585467     -0.90727914
H       2.12704202     -0.53212707     -1.44892162
H       2.62175680      0.88171251     -0.52130613
H       2.46448478     -0.69186220      0.27912267
H      -0.06619314     -1.56490392      0.79362661
H      -1.09864017      0.04278587      2.18496408
H      -2.16071800      0.62165148      0.88097808
H       0.40524716      2.07685625      1.32212618
H      -0.90817519      1.25427510     -1.17845845
H      -2.15858138     -1.65820316     -0.56241764
H      -0.83780998     -1.84928517     -1.49503313
