10
b3lypvtz=-279656.757079
C      -1.97537759     -0.32986176     -0.18256187
C      -0.87001419      0.39277056     -0.06615213
C       0.49078686     -0.13988088     -0.04683937
N       1.51049609      0.60306980      0.06727571
O       2.69898916     -0.11299562      0.06220087
F       0.56471253     -1.47164591     -0.15947674
F      -0.92150331      1.72780543      0.04772438
H      -1.91514625     -1.40179978     -0.27303008
H      -2.94199665      0.15015602     -0.18749098
H       3.35905335      0.58238215      0.15486794
