14
b3lypvtz=-201274.20554813
C      -0.65553279      2.16988686     -0.06092001
N       0.17758027      1.29566770      0.32330433
C      -0.01416984     -0.05940944     -0.02401947
N      -1.36211708     -0.44699937     -0.24217499
C      -1.73821452     -1.57193470      0.19240964
N       0.92810567     -0.89691809     -0.16191428
C       2.30915502     -0.48138944     -0.01528099
H      -0.49345362      3.20335277      0.23699795
H      -1.52611693      1.94185022     -0.67679684
H      -1.07465087     -2.23919009      0.74725425
H      -2.75671943     -1.89927139     -0.00093988
H       2.43383975      0.49510052      0.45614716
H       2.77970210     -0.45661056     -1.00217162
H       2.83632926     -1.24260299      0.56234275
