18
b3lypvtz=-181878.8233833
C       2.23845004      0.33382633     -0.50430990
N       1.33944393      0.10042992      0.61631327
C       0.77881054     -1.24545598      0.74705218
C      -0.06573621     -0.09974685      0.33160249
C      -1.22146936      0.54844687      1.09461139
C      -2.10420660      0.33350455     -0.16740614
C      -0.82351338      0.03821989     -0.99893614
H       1.97179894     -0.22624422     -1.41120914
H       3.25050243      0.04916706     -0.21321441
H       2.24553100      1.39747074     -0.74787785
H       1.03432427     -1.97716247     -0.01557476
H       0.72341746     -1.63878760      1.75598975
H      -1.54142031      0.06513142      2.01721313
H      -1.02621991      1.60228529      1.29846923
H      -2.74604783     -0.54179710     -0.07852869
H      -2.70957719      1.17799239     -0.49104862
H      -0.49542528      0.90836992     -1.57093710
H      -0.84846255     -0.82555017     -1.66220870
