15
b3lypvtz=-214513.44205724
C      -2.75678244     -0.94409071      0.00255828
N      -1.39131522     -0.45588541      0.02205752
C      -1.22528799      0.79215851     -0.01677982
O      -0.05197121      1.44400204     -0.00624195
C       1.20156538      0.84601342      0.04195463
C       1.51713640     -0.45010806     -0.01217204
N       2.83347675     -0.91822555     -0.08965145
H      -2.94389641     -1.54359056      0.89583769
H      -3.51039836     -0.14627342     -0.04211034
H      -2.89915207     -1.59959654     -0.85905725
H      -2.03292568      1.52765593     -0.06371786
H       1.95185658      1.62316396      0.09224868
H       0.74827292     -1.20248648     -0.06166228
H       3.54245175     -0.23695553      0.14187094
H       2.98819960     -1.77864161      0.41380826
