13
b3lypvtz=-211341.34827695
C      -1.47612162     -1.00469030     -0.28034516
N      -2.72072405     -1.22902886     -0.28000686
C      -0.86638038      0.37254261     -0.23746943
N      -1.65857971      1.37423194     -0.19896710
C       0.59280345      0.49133386     -0.24519397
N       1.34761008     -0.54225898     -0.29981994
N       2.67826120     -0.38724284     -0.24759732
H      -0.78164673     -1.83928829     -0.31052427
H      -3.22030650     -0.33344795     -0.24735380
H      -1.15035407      2.25795738     -0.17064013
H       1.00901193      1.50449399     -0.20047518
H       3.18194254     -1.18242969     -0.60246957
H       3.06448387      0.51782713     -0.49753576
