16
b3lypvtz=-204474.21409365
C       2.52263784     -0.82590183     -0.00000725
C       1.24011398     -0.02444107     -0.00002132
N       1.23887238      1.27166975     -0.00003569
C      -0.01556484     -0.73087624     -0.00000263
C      -1.21372618     -0.07289964     -0.00000050
C      -2.53949281     -0.76184810      0.00001584
O      -1.29402260      1.24748179     -0.00001452
H       3.11879921     -0.57993618     -0.88076004
H       2.33782302     -1.89850949     -0.00017332
H       3.11861314     -0.58018703      0.88094292
H       2.16856914      1.67897184     -0.00004965
H      -0.01276412     -1.80959502      0.00000587
H      -3.11377553     -0.45934397     -0.87813715
H      -3.11376128     -0.45932981      0.87817328
H      -2.42990597     -1.84390566      0.00002374
H      -0.33268539      1.59184465     -0.00002557
