12
b3lypvtz=-252120.87478031
N      -2.35450491      0.25217445      0.68378390
C      -1.29138234      0.19738514     -0.17614612
F      -1.71832510      0.20707996     -1.45203436
C       0.02008414      0.19605899      0.10991467
C       1.04374760      0.25704623     -0.90102505
N       2.31345145      0.25159129     -0.72768962
O       2.65255398      0.17564562      0.64376394
H      -2.14514513      0.06499355      1.65054786
H      -3.20158935     -0.18271671      0.35193102
H       0.31662556      0.15692009      1.14640699
H       0.75106648      0.31401838     -1.94256114
H       3.61331762      0.18440299      0.61320791
