18
b3lypvtz=-233518.98445088
C       3.01323811      0.34785783     -0.47493436
C       2.13696614     -0.75253793      0.12122071
C       0.84815559     -0.23567257      0.73923789
O       0.05571471      0.35561282     -0.28071915
C      -1.14194929      0.95660206      0.16354135
C      -2.27888265     -0.01669149      0.39572595
F      -2.69542064     -0.57541392     -0.80898818
H       3.92371228     -0.06815393     -0.90836266
H       3.30927777      1.07163408      0.28828535
H       2.48065721      0.88622347     -1.25800784
H       1.87910850     -1.48427317     -0.64824360
H       2.68645892     -1.29280726      0.89726007
H       1.06776364      0.51344108      1.51463356
H       0.30984226     -1.06126886      1.22113669
H      -1.43998209      1.66175267     -0.61441433
H      -0.97571260      1.52429225      1.09086180
H      -3.13081601      0.50912880      0.83587836
H      -1.98843184     -0.83581892      1.05642639
