12
b3lypvtz=-202904.36146913
C      -0.84748147     -0.98608511     -0.69516165
C      -0.25171827      0.08428238      0.23000438
O      -0.57813928     -0.31235821      1.55919736
C       1.20383073      0.20121551      0.04731167
C       2.39262921      0.28257295     -0.07715904
C      -0.87682808      1.40175367     -0.06326643
N      -1.37990700      2.41504815     -0.27009191
H      -0.66451248     -0.73580633     -1.73761822
H      -0.38090655     -1.94083475     -0.46200871
H      -1.91925467     -1.05173275     -0.51856353
H      -0.14382617      0.28542015      2.17920113
H       3.44591403      0.35642433     -0.19194506
