20
b3lypvtz=-205974.88785865
C      -1.84651146     -1.53911757      0.22632959
N      -0.72283491     -0.78415002     -0.32235917
C      -0.51564517      0.56147242      0.25222642
C      -1.61019149      1.56821064     -0.12412013
C       0.87606973      1.07995656     -0.13564803
C       2.03362885      0.21569968      0.36561204
O       2.09274967     -1.05656232     -0.25504155
H      -1.90250420     -2.50846855     -0.26898636
H      -1.67366430     -1.71990389      1.28837809
H      -2.82246992     -1.04847299      0.12211203
H      -0.82081204     -0.70354792     -1.32921363
H      -0.53046872      0.42412630      1.33903077
H      -2.60266532      1.21281276      0.15405613
H      -1.45025593      2.52419500      0.37754008
H      -1.60607851      1.75367356     -1.20154309
H       0.94171777      1.16449855     -1.22606889
H       0.99282945      2.09097040      0.26551212
H       2.98148367      0.71527265      0.15473494
H       1.96084806      0.11640471      1.45966997
H       1.17328578     -1.37543598     -0.27346733
