15
b3lypvtz=-237857.83358516
N      -2.34345348     -1.08328511      0.00971833
C      -1.52117067      0.03694194     -0.00975387
O      -1.96653111      1.17076754     -0.04749945
N      -0.17862969     -0.25229519      0.00228433
C       0.80449654      0.78903000     -0.23729661
C       2.13459166      0.40700658      0.37536996
O       2.55602809     -0.81468421     -0.23901180
H      -1.99867220     -1.91223122      0.46682252
H      -3.30059760     -0.85844175      0.22713053
H       0.11203713     -1.18198855     -0.25448258
H       0.93984509      0.97101418     -1.30938549
H       0.43325242      1.71063171      0.20694282
H       2.86074092      1.20648020      0.19294620
H       2.02011554      0.27633804      1.45663154
H       3.35129537     -1.12846016      0.19933657
