15
b3lypvtz=-193584.5148782
C       2.84944417      0.16361203     -0.27706250
C       1.72305758     -0.24215276     -0.19456183
C       0.38509783     -0.76774692     -0.13464385
O      -0.32350316     -0.67076292      1.11522286
C      -0.82189127      0.08309370     -0.00107506
C      -0.69630811      1.57997249      0.12734362
C      -2.12642106     -0.42331659     -0.56855633
H       3.84517070      0.52612203     -0.33955134
H       0.26376552     -1.72599043     -0.63306229
H      -1.48448842      1.96228846      0.77898745
H       0.26721701      1.85877054      0.54746607
H      -0.80423363      2.05854477     -0.84791029
H      -2.14038838     -1.51185176     -0.60344050
H      -2.28609623     -0.03724912     -1.57706157
H      -2.95947357     -0.09087651      0.05425257
