18
b3lypvtz=-181919.28749086
C       1.70349094     -0.17867780      1.07118193
C       0.60677526      0.02247773      0.01943199
C       1.24262500      0.26262641     -1.36313552
C      -0.33359558     -1.16959919     -0.06473166
N      -1.57867736     -0.93899932     -0.06442714
C      -1.78215265      0.51703114      0.03772467
C      -0.41086441      1.13039951      0.39692731
H       1.27692199     -0.38666987      2.05383529
H       2.32440960      0.71578208      1.15589384
H       2.35892553     -1.01106223      0.80477098
H       0.48261770      0.45027971     -2.12323734
H       1.91144661      1.12532423     -1.33081108
H       1.82889485     -0.60158638     -1.68286037
H       0.04117437     -2.18799339     -0.15856409
H      -2.55399099      0.72566778      0.77932674
H      -2.16699082      0.87240998     -0.92245032
H      -0.36111851      1.32993939      1.46860171
H      -0.21597552      2.06977822     -0.12033895
