15
b3lypvtz=-191214.08411695
C      -1.63851304      0.10087815     -0.76956063
C      -1.49186136     -0.88485552      0.36412199
C      -0.28996154     -0.15277949     -0.16966761
C       0.47649252      0.89573984      0.65329113
N       1.84760268      0.37492511      0.54277263
C       1.82899407     -0.54811137     -0.49143788
N       0.68810853     -0.91372186     -0.92657226
H      -1.80936023     -0.29130171     -1.76211756
H      -2.11320084      1.05186062     -0.56345098
H      -1.86269127     -0.60174796      1.34089965
H      -1.56410543     -1.93747425      0.13041899
H       0.15032494      0.94540149      1.69277999
H       0.39257401      1.89651931      0.21449764
H       2.62060849      1.01864631      0.60073517
H       2.76498843     -0.95397869     -0.85671027
