17
b3lypvtz=-194377.32998856
C      -1.94910845     -0.00000200      0.71970203
C      -1.05091475      0.00000101     -0.52005039
C      -0.10470908      1.23478463     -0.57719741
C       1.24113665      0.73193749     -0.11166207
O       1.19192414     -0.00000236      1.12567702
C       1.24113696     -0.73193644     -0.11166561
C      -0.10470860     -1.23478200     -0.57720307
H      -2.59405568     -0.88144217      0.73233937
H      -2.59405601      0.88143787      0.73234340
H      -1.35354440     -0.00000398      1.63210355
H      -1.69637694      0.00000290     -1.39988121
H      -0.00199285      1.60837060     -1.60001452
H      -0.47280591      2.06150327      0.03364420
H       2.13868739      1.32201276     -0.26014013
H       2.13868794     -1.32201069     -0.26014621
H      -0.47280502     -2.06150350      0.03363492
H      -0.00199240     -1.60836338     -1.60002187
