14
b3lypvtz=-203680.53916353
N      -2.44405342     -1.07214968     -0.00006856
C      -1.81288340     -0.11045228     -0.00002501
C      -1.00342393      1.10596472      0.00003035
C       0.50693653      0.85256160      0.00003114
C       1.11894836     -0.11097081      1.03625609
O       1.82317969     -0.83133700     -0.00002107
C       1.11896235     -0.11089561     -1.03625551
H      -1.28184204      1.69805291     -0.87568243
H      -1.28185495      1.69798173      0.87578718
H       1.00624931      1.82049019      0.00006966
H       1.80112137      0.32524310      1.76793893
H       0.39290953     -0.74928823      1.54831390
H       0.39293028     -0.74917591     -1.54836921
H       1.80114532      0.32537128     -1.76789747
