15
b3lypvtz=-216909.80987465
C       0.81822276      1.84520195      0.19083651
C       0.39557324      0.46987195     -0.36031104
C       1.60737777     -0.44453812     -0.34794596
O       1.75355468     -1.39288703      0.37672071
C      -0.76859700     -0.11666398      0.39806547
C      -2.15109618      0.22656205      0.05876554
O      -1.59666205     -1.03828315     -0.31545397
H       1.06622745      1.77920475      1.25132306
H       1.69393018      2.22941072     -0.33479770
H       0.01144641      2.56798284      0.07258837
H       0.10281462      0.58939795     -1.40918608
H       2.40696734     -0.14946247     -1.06135292
H      -0.54900106     -0.42166528      1.41667398
H      -2.34911207      0.90634736     -0.76504094
H      -2.91988109      0.18830147      0.82365796
