14
b3lypvtz=-203661.20230222
C      -2.43005111     -0.86157351     -0.07453546
C      -1.35455026     -0.33200306     -0.02567132
C      -0.02261628      0.28234741      0.03748477
C      -0.00800652      1.64809800     -0.66255678
O       0.36902573      0.51576370      1.39157200
C       0.98172106     -0.65231928     -0.66185143
N       2.07310517     -1.05511376     -0.17986423
H      -3.38547081     -1.32284831     -0.11609300
H       0.97958701      2.09369252     -0.54865043
H      -0.75117678      2.30091556     -0.20858618
H      -0.23038062      1.54018050     -1.72327720
H       0.06427992     -0.22283327      1.93028371
H       0.69646935     -0.95755387     -1.66994415
H       2.19332415     -0.67557664      0.76422371
