13
b3lypvtz=-213763.06974242
C       1.18575414     -0.14560625      0.64220599
C      -0.16771160     -0.52615965      0.13221906
C      -1.28006457      0.19540497      0.29687266
C      -2.54089886     -0.22904856     -0.23087020
N      -3.57966417     -0.51713852     -0.64165850
O      -1.28599487      1.37853678      0.99492808
N       2.20615724     -0.47104611     -0.36174737
H       1.18002048      0.90117673      0.96409936
H       1.40291526     -0.74600288      1.53240489
H      -0.24264280     -1.45659669     -0.41359090
H      -2.14395776      1.80655070      0.90862165
H       2.13324357      0.15767649     -1.15319306
H       3.13284392     -0.34774702      0.02756267
