17
b3lypvtz=-215279.55132448
C       3.04365375     -0.43362616      0.32089685
N       1.87082789      0.28574098     -0.14726745
C       0.68396068     -0.41099683     -0.30548547
C      -0.53403660      0.15102424     -0.24413722
N      -0.64867165      1.54194981      0.06770852
C      -1.78965302     -0.62217882     -0.47989755
O      -2.71294737     -0.50678843      0.61736397
H       2.94740059     -0.82237739      1.34351516
H       3.91095393      0.22490667      0.28478421
H       3.24308845     -1.27726993     -0.34180755
H       1.71716084      1.17521124      0.31137283
H       0.78672112     -1.45936243     -0.55768017
H      -0.43761397      2.13682760     -0.72676040
H      -1.58193488      1.75944848      0.39268605
H      -2.34647384     -0.22660656     -1.33438924
H      -1.55552837     -1.67188412     -0.68697292
H      -2.25899754     -0.82080633      1.40736637
