16
b3lypvtz=-181163.4900868
C      -2.72485670      0.02254709      0.49133474
C      -1.58959979      0.21779557     -0.52465427
C      -0.45817727     -0.73406805     -0.30541600
C       0.82074421     -0.42645084     -0.05231253
C       1.90653399     -1.45082266      0.16482635
C       1.23621642      0.94302863      0.02520036
N       1.61063750      2.03200176      0.09699339
H      -3.11252293     -0.99758950      0.46207290
H      -2.37942467      0.22105978      1.50646141
H      -3.55154810      0.70038336      0.27680436
H      -1.98803160      0.05448749     -1.53192499
H      -1.23039580      1.24685444     -0.49209260
H      -0.70995444     -1.79024135     -0.34718537
H       2.70066138     -1.34167995     -0.57628328
H       1.49936509     -2.45804414      0.09166224
H       2.36569772     -1.33115264      1.14796829
