16
b3lypvtz=-181133.60713184
C       1.70963876      0.32465185      0.34969185
C       0.79491733      1.23309220      0.00691895
N      -0.33893970      0.70421733     -0.64246809
C      -1.60326326      0.66224573      0.16556270
C      -1.37667144     -0.83909882      0.46831742
C      -0.18951072     -0.79532055     -0.52345707
C       1.24067697     -1.06623098     -0.01479818
H       2.67313645      0.54384750      0.78419048
H       0.85286179      2.30295051      0.15622008
H      -1.60575351      1.33436054      1.02435665
H      -2.47652829      0.87019533     -0.45294439
H      -1.06933573     -1.03455117      1.49521037
H      -2.19408556     -1.51065885      0.21038984
H      -0.39892077     -1.29438331     -1.46882677
H       1.25669499     -1.75672530      0.83551775
H       1.86091469     -1.51672300     -0.79509558
