15
b3lypvtz=-216919.0213184
O      -1.59361859      0.47174837     -1.51023802
C      -1.55797252      0.95823774     -0.18288628
C      -0.34532986      0.45463081      0.59673470
C       1.00226074      0.77578755      0.01356586
C       1.71082944     -0.33118271     -0.14391330
C       0.91039727     -1.51542300      0.30902740
O      -0.38473382     -0.98521294      0.61361817
H      -1.51351737     -0.48734352     -1.45153287
H      -1.52714517      2.04795320     -0.24055774
H      -2.46400992      0.67660708      0.36728509
H      -0.42735598      0.83669881      1.62627124
H       1.31926918      1.78278700     -0.21384980
H       2.71888100     -0.40624048     -0.52473279
H       0.80945823     -2.28895155     -0.45918299
H       1.34248737     -1.98999634      1.20039133
