14
b3lypvtz=-226992.92867464
O       2.35109200      1.58245157      0.33007599
C       2.25599176      0.37796354      0.24592079
N       1.09370878     -0.31451774      0.08055132
C      -0.20021037      0.30682532     -0.01733845
C      -1.34361771     -0.22289817      0.87368218
O      -2.21314789     -0.36068608     -0.27205963
C      -1.12609518     -0.09307859     -1.18559929
H       3.13034386     -0.29453356      0.29688902
H       1.15501488     -1.31874149      0.02502595
H      -0.04375090      1.37754287      0.06645634
H      -1.12867798     -1.18920731      1.34348301
H      -1.74905289      0.46121703      1.62057045
H      -0.80552051     -0.99617391     -1.71690197
H      -1.37607784      0.68393651     -1.90945571
