16
b3lypvtz=-204454.73249727
C      -1.63775133     -1.39353278      0.43235639
C      -1.15829777     -0.21946429     -0.00168437
O      -1.97564991      0.74701468     -0.54514615
C       0.24745963      0.20143985      0.03472399
C       0.57082953      1.63175389      0.39021251
C       1.20856420     -0.70187199     -0.23250427
N       2.57127395     -0.50672373     -0.10080278
H      -2.67646606     -1.66640998      0.29073592
H      -1.00207475     -2.09588424      0.94621622
H      -2.89187422      0.47368982     -0.43088070
H      -0.27166358      2.28229916      0.16794339
H       0.80377742      1.74389031      1.45436660
H       1.43017472      2.00592589     -0.17354457
H       0.93193554     -1.70110439     -0.54334741
H       3.15855216     -1.04418972     -0.71683085
H       2.88737147      0.44226653      0.01815307
