12
b3lypvtz=-226231.30456902
O       3.40765571      0.39415145     -0.57777657
C       2.27494500      0.00794230     -0.38985928
C       1.11943296      0.92642324     -0.43326908
N      -0.12019453      0.63949223     -0.25179450
C      -0.63129577     -0.60536849      0.02537181
C      -1.97485063     -0.67635023      0.17950111
O      -2.78749260      0.37444277      0.07584548
H       2.07346982     -1.05752640     -0.17796280
H       1.37722191      1.96124202     -0.64585343
H      -0.03385244     -1.50287809      0.12375978
H      -2.49039509     -1.60073842      0.40018812
H      -2.21454434      1.13906764     -0.12235066
