15
b3lypvtz=-214480.81218583
C      -1.64897986     -0.72004612     -0.32215874
C      -0.52065463      0.23793236      0.03022246
C       0.80964378     -0.39877420     -0.38896113
C       0.04485018     -0.91581816      0.80213815
O      -0.98417043     -1.81485825      0.37845733
N       1.94723938      0.41087822     -0.04597747
N      -0.73472647      1.60250287      0.38959317
H      -2.58432975     -0.45777527      0.17431268
H      -1.82260420     -0.95119038     -1.37601990
H       0.84447177     -1.03841413     -1.27234976
H       0.45439959     -1.01354141      1.79855683
H       2.15692434      1.08665430     -0.77037105
H       2.77494599     -0.15313914      0.09927532
H       0.04660313      1.93624942      0.94071354
H      -0.78361280      2.18933989     -0.43743140
