12
b3lypvtz=-202904.43074618
C       0.89475634      1.93950009      0.00003350
C       0.14841516      0.82907736      0.00009387
C      -1.30306234      0.73309551     -0.00001169
N      -1.73069580     -0.47375207      0.00019999
O      -0.61613264     -1.33512858     -0.00003869
C       0.54856315     -0.58408819      0.00002285
C       1.74406762     -1.17062854     -0.00001791
H       0.43534676      2.91783838      0.00005635
H       1.97506546      1.90060575     -0.00002719
H      -2.01130742      1.54819473     -0.00026400
H       2.64409958     -0.57540449      0.00001488
H       1.83585713     -2.24606596     -0.00008697
