11
b3lypvtz=-213022.83693275
O       0.96253414     -0.17176243      0.22378066
C       2.17313146     -0.07976028      0.11658560
C       2.95436042      1.14099264      0.02439885
C       4.30120401      1.07905961     -0.09126594
C       4.95238124     -0.18941006     -0.12268904
N       4.30293447     -1.31299955     -0.04424224
N       2.97581916     -1.22809586      0.06927324
H       2.49288400     -2.11388624      0.12840358
H       2.40990276      2.07390063      0.05298150
H       4.89749885      1.98000884     -0.16088305
H       6.02624949     -0.27264728     -0.21424315
