18
b3lypvtz=-181913.95927027
C       1.74757191     -0.04545366     -1.04284769
C       0.60836418      0.02312556     -0.02070547
C       1.18841368      0.06836694      1.40710979
C      -0.33982183      1.19414283     -0.23574677
C      -1.60063036      0.77636855     -0.11584554
N      -1.69902815     -0.59488983      0.15761584
C      -0.38115813     -1.16867269     -0.17265647
H       2.34626656     -0.94985765     -0.90561294
H       2.41727399      0.81051658     -0.93504296
H       1.36180815     -0.04336047     -2.06311929
H       1.84754913     -0.78489720      1.58932614
H       1.76989220      0.97979467      1.55965376
H       0.38982199      0.04983429      2.14960091
H      -0.02025373      2.21968825     -0.33609207
H      -2.50196220      1.37195465     -0.14489778
H      -2.49133002     -1.06896349     -0.25012112
H      -0.36609783     -1.53135373     -1.20786665
H      -0.13624058     -2.00167359      0.48760331
