18
b3lypvtz=-181920.70773305
C       2.42725687     -0.04804039      0.00951970
C       0.94057426     -0.03446724     -0.33764850
C       0.26235254      1.27423206      0.07942509
C      -1.24508107      1.18551628      0.06244957
N      -1.95605030      0.14296184     -0.03134655
C      -1.30047865     -1.16192495     -0.11864753
C       0.17069193     -1.19487593      0.29736984
H       2.90471808     -0.96708133     -0.33616743
H       2.95149391      0.79337440     -0.44893980
H       2.57520901      0.01775056      1.09057742
H       0.84243783     -0.12777265     -1.42544952
H       0.57331611      2.10278800     -0.56406217
H       0.57614729      1.55872405      1.09242072
H      -1.77879545      2.13543511      0.13786700
H      -1.88715371     -1.85610689      0.48703547
H      -1.41344459     -1.50498319     -1.15294507
H       0.24478696     -1.11893993      1.38781768
H       0.61385198     -2.15432480      0.01811407
