16
b3lypvtz=-227748.11053583107
C      -0.60797793     -0.64913847      0.32339571
C      -2.01636277     -0.09886531      0.24365452
O      -2.46458314     -0.25313680     -1.10490711
N       0.29654727      0.12763426     -0.52649908
H      -0.11846206      0.19324605     -1.44990081
H       1.51004581      1.88712421      0.00422641
C       1.63389184     -0.37731115     -0.59381623
C       2.64363280      0.45250512     -0.32999431
O       2.47458426      1.75495210     -0.00187922
H      -0.25788009     -0.59173816      1.35606288
H      -0.62771508     -1.71249161      0.04263246
H      -2.66368852     -0.64913190      0.93552940
H      -2.01344529      0.95755042      0.53206359
H      -3.28955131      0.22598746     -1.21853211
H       1.81970866     -1.41851994     -0.84088871
H       3.68125554      0.15133373     -0.36083470
