18
b3lypvtz=-205209.08611498
C       1.36149242      1.65465397      0.65518192
N       0.42763477      1.25110247     -0.08792841
C      -0.05655411     -0.14065738     -0.05813386
C       0.37411951     -0.96751877      1.15513463
C       0.41889955     -0.80298374     -1.36089435
C      -1.59832287     -0.00845635     -0.06528594
O      -2.07167254      0.79594603     -1.12555565
H       1.89490192      1.03247577      1.37850130
H       1.67564861      2.69432649      0.58362172
H       0.09513220     -0.48272281      2.09258315
H       1.45055683     -1.14446173      1.16816259
H      -0.11203036     -1.94355114      1.12499506
H       0.05784842     -0.24949600     -2.22499570
H       1.50862411     -0.83783164     -1.39742941
H       0.03881889     -1.82395400     -1.42219722
H      -1.91740949      0.39341809      0.90600387
H      -2.04965421     -0.99508995     -0.18407261
H      -1.49823366      1.57470069     -1.13769107
