15
b3lypvtz=-214523.65322398
C      -1.53863267      1.47258835     -0.21881452
C      -1.18270863      0.19961314     -0.00150073
N      -2.10210268     -0.83628867      0.20571707
C       0.23514834     -0.25256261     -0.07145483
N       0.59323685     -1.45009950     -0.31077416
C       1.34665906      0.74454775      0.18963027
O       2.61433702      0.15464019      0.08883482
H      -2.57368010      1.78432632     -0.16819324
H      -0.81455765      2.22151868     -0.49470543
H      -1.84849138     -1.47838742      0.94370472
H      -3.05653233     -0.52511987      0.30670013
H      -0.20084735     -2.05833723     -0.50070349
H       1.26150523      1.57295570     -0.52359412
H       1.20014240      1.17428920      1.18840754
H       2.44803589     -0.78021902     -0.12077704
