14
b3lypvtz=-224583.86068044
C      -1.73530628     -0.32547897     -0.05422705
C      -1.16302353      1.08226184     -0.22406078
O       0.24754924      0.86507575     -0.41056658
C       0.56463838     -0.37457331      0.08523565
N       1.72217499     -0.87522610      0.11397740
N       2.76313161     -0.10644769     -0.45434716
N      -0.59410398     -0.98128850      0.57475839
H      -2.61389013     -0.33975577      0.58974313
H      -1.99999722     -0.76168255     -1.02507277
H      -1.31342904      1.68744000      0.67257827
H      -1.54620891      1.61207013     -1.09298748
H       3.61314841     -0.38271644      0.01783999
H       2.61967721      0.88887681     -0.30124809
H      -0.56436074     -1.98855520      0.57873810
