19
b3lypvtz=-192734.76196782
C       3.27932341     -0.63374477      0.04747632
N       2.19290304      0.21736919     -0.41531565
C       0.92964320     -0.02172782      0.26679043
C      -0.16213061      0.90195039     -0.26880966
C      -1.52412835      0.75475669      0.43459973
C      -2.19907342     -0.56873593      0.19054416
N      -3.30677059     -0.77941608     -0.38631241
H       3.06325862     -1.67351842     -0.20735475
H       4.20373541     -0.35619386     -0.45943126
H       3.45519219     -0.58831779      1.13423923
H       2.45407653      1.19119879     -0.31584524
H       1.00757397      0.10082749      1.36242200
H       0.65778389     -1.06691219      0.09505012
H      -0.27634064      0.73281040     -1.34150677
H       0.16895097      1.93867705     -0.15126943
H      -1.38095705      0.87718106      1.51445102
H      -2.19224645      1.55533922      0.10740610
H      -1.66675075     -1.45084775      0.55563187
H      -3.72955440      0.10268733     -0.68869379
