14
b3lypvtz=-203600.37260686
C       1.00863024     -0.25854241      0.33332475
N       0.89550675      1.16611176      0.63010071
C       1.28994073      2.08963257     -0.47266076
C      -0.05669267      1.95944032     -1.27633547
C      -0.39842036      1.80421512      0.25187088
C       0.29203389      3.17292455      0.01440480
O      -0.30780395      3.39412651     -1.29622907
H       0.62971244     -0.54328052     -0.65942623
H       0.45733699     -0.82583582      1.08450829
H       2.05631175     -0.55579330      0.39687111
H       2.30790897      2.20607777     -0.83940901
H      -0.33546761      1.38181978     -2.15332191
H      -1.35135812      1.58719770      0.73058414
H       0.44036096      4.00990595      0.68971779
