15
b3lypvtz=-191194.9223998
C       2.17016590      0.62371772      0.13107517
N       1.42841982     -0.39647572      0.03343947
C       0.00635023     -0.26101534     -0.07139921
C      -0.57203060      1.08012114     -0.40121616
N      -1.51999688      1.70479345      0.15944591
C      -0.66862885     -1.47293929     -0.70359161
C      -0.76716032     -1.25090321      0.77020737
H       1.81184296      1.65643813      0.14808622
H       3.24360534      0.47546935      0.21552240
H      -0.10767361      1.56174549     -1.26607009
H      -1.87389568      1.18563192      0.96645773
H      -0.00109681     -2.24224281     -1.06326563
H      -1.54569191     -1.28792885     -1.30763014
H      -0.17801054     -1.87704753      1.42286532
H      -1.71782404     -0.93436946      1.17699225
