14
b3lypvtz=-224543.51203462
C      -2.84041474     -0.01336468      0.53278183
C      -1.47957410      0.43975756      0.10268056
C      -0.34747540     -0.15449925      0.47953394
N       0.92413407      0.24417793      0.09703651
N       1.99638856     -0.42688943      0.53685622
N       3.06458087      0.03511113      0.11951541
O       4.10959877     -0.74391249      0.64304708
H      -2.78094185     -0.88329366      1.18810852
H      -3.46365940     -0.28402022     -0.32448635
H      -3.37436573      0.77429794      1.07233129
H      -1.43150014      1.30387082     -0.55385073
H      -0.33415713     -1.01796503      1.13131802
H       1.07339000      1.03834779     -0.51357777
H       4.88399621     -0.31161838      0.26675961
