14
b3lypvtz=-227003.80764952
C      -1.64241731      1.24242094     -0.03680744
C      -1.28364628     -0.04669053     -0.03852947
O      -2.25515043     -1.01198666     -0.04761888
N      -0.01648770     -0.63509139     -0.03235670
C       1.10498497     -0.04636588     -0.02383392
C       2.38871983     -0.82273059     -0.01829119
O       1.23917568      1.30761003     -0.01919123
H      -0.91480802      2.03092865     -0.02982643
H      -2.69319768      1.49088317     -0.04260370
H      -1.79143673     -1.85735352     -0.04716448
H       2.99081573     -0.57569762     -0.89714967
H       2.98046145     -0.58040688      0.86885531
H       2.17703181     -1.88689649     -0.02234025
H       2.17254367      1.54634877     -0.01288595
