18
b3lypvtz=-202818.40185167
C       2.76842717     -0.75547189     -0.09699364
N       1.36207958     -0.70575460      0.23517362
C       0.61481609      0.44680087      0.14485986
N       1.00353149      1.56711247     -0.33587396
C      -0.81661464      0.29971609      0.60924351
C      -1.73853016     -0.22194042     -0.49866955
N      -3.10250254     -0.38122768      0.01640362
H       2.93035643     -0.51896095     -1.15146488
H       3.13871196     -1.76338331      0.07936990
H       3.36484818     -0.05819090      0.50212212
H       0.99650731     -1.44504625      0.80820709
H       1.97454230      1.53939975     -0.64074137
H      -1.15762912      1.28377413      0.93003150
H      -0.88518926     -0.37375954      1.46750529
H      -1.39047434     -1.20310086     -0.82934631
H      -1.66083110      0.45395915     -1.35905098
H      -3.49934268      0.52630638      0.23478794
H      -3.70019368     -0.78990144     -0.69240075
