13
b3lypvtz=-237048.61070848
N       1.72571240     -1.25243403     -0.35207606
C       0.93618614     -0.19841878      0.07904010
C      -0.41759082     -0.55804155      0.63261132
C      -1.47084775     -0.61324849     -0.46146363
O      -2.22639270     -1.53567248     -0.61404173
N       1.36501455      0.99314853     -0.10498248
O       0.37489691      1.95625905      0.23595098
H       2.66299018     -0.98187693     -0.61260597
H       1.69578047     -2.08052823      0.22193574
H      -0.39946679     -1.52190435      1.14044959
H      -0.71794849      0.22075626      1.33690891
H      -1.50400317      0.27737086     -1.11639005
H       0.84933407      2.78209114      0.10604728
