14
b3lypvtz=-227004.04563248
O       2.41378250      0.20706241     -0.74010585
C       1.14665845      0.17119074     -0.26339659
N       0.52001572      1.23358380     -0.00102432
C      -0.85384298      1.10597049      0.48103277
C      -1.46620657     -0.25023806      0.16789655
O      -0.58599746     -1.29329217      0.57803298
C       0.64122817     -1.24089321     -0.11754393
H       2.64768841      1.14313830     -0.82686453
H      -1.45225416      1.90025819      0.02784226
H      -0.86120198      1.28224083      1.56076798
H      -2.39805736     -0.40263230      0.71108534
H      -1.67380670     -0.33708885     -0.90753149
H       1.36540264     -1.82835975      0.44721945
H       0.55669132     -1.69094043     -1.11741062
