11
b3lypvtz=-215416.6356699
O       2.54586957      0.42978255      0.10814585
C       1.34997299      0.28991996      0.05879360
C       0.28901341      1.30842062      0.04347342
C      -0.92114666      0.73543007     -0.01692873
C      -0.88697608     -0.76856225     -0.05293285
C       0.60482997     -1.08053963     -0.00376881
O       1.12763832     -2.15826995     -0.01067011
H       0.49115718      2.36867216      0.07746565
H      -1.85369120      1.28420220     -0.03888258
H      -1.40661355     -1.22625230      0.79317490
H      -1.33985394     -1.18280344     -0.95777034
