17
b3lypvtz=-191964.33507772
C      -2.20490856     -0.22753397     -0.22103078
C      -0.90817040      0.18449101      0.46617217
N      -0.21689005      1.24129608     -0.29233315
C       1.23006882      1.15547496     -0.06628651
C       1.45486260     -0.31019761      0.23144003
N       0.79428110     -1.21572438     -0.73083826
C       0.14470550     -0.90521786      0.55981222
H      -1.98637371     -0.60690742     -1.21842526
H      -2.88044395      0.62460328     -0.31784509
H      -2.72363330     -0.99994344      0.35171767
H      -1.13144530      0.48946573      1.50231101
H      -0.59279984      2.16109581     -0.11386955
H       1.58362911      1.73833656      0.79789787
H       1.77457062      1.49869102     -0.95020178
H       2.37222105     -0.62320198      0.71183048
H       1.22501849     -2.13320250     -0.67233466
H       0.03026082     -1.68752929      1.29848760
