13
b3lypvtz=-190406.14871401
N       0.80944805     -0.03424251      0.01648672
C       0.47336166     -1.15101758     -0.44104126
C       1.06930825     -2.50382129     -0.76578165
C       0.16800734     -3.44641788      0.08388443
C      -0.97660520     -2.95023915     -0.79758817
C      -0.06453257     -2.52764422     -1.86471110
N      -0.79939337     -1.46986630     -1.06776357
H       1.78365660     -0.04188283      0.31516761
H       2.13510559     -2.66975155     -0.88051110
H       0.12717201     -3.26273293      1.15899052
H       0.37831136     -4.49718105     -0.11271532
H      -1.99262019     -3.30811387     -0.85991504
H      -0.07351951     -2.55168884     -2.94250206
