14
b3lypvtz=-203579.58740348
C      -1.31089089      0.43939492      1.02618546
C      -0.83676383      1.08475531     -0.35824549
C       0.61365319      0.80227134      0.15903406
C      -0.18255204     -0.44700466      0.40864201
N      -0.81614830     -0.27046881     -0.98264607
C       1.15608473     -1.19085689      0.26364501
O       1.68311751      0.00179817     -0.42777182
H      -2.32875167      0.04842301      1.01281410
H      -1.08533377      0.95875048      1.95914450
H      -1.27528724      1.95211567     -0.85597390
H       0.98189001      1.42342559      0.97355836
H      -1.75809688     -0.66588320     -0.96210909
H       1.15090125     -2.06587758     -0.38337599
H       1.70447793     -1.37444334      1.18999887
