13
b3lypvtz=-213779.21519095
C      -2.37647223     -0.18253120     -0.23135159
C      -1.13303474     -0.64721060     -0.20162803
C       0.07274500      0.18712892     -0.44095624
N       0.15194486      1.23990783     -1.15173136
N       1.21077487     -0.30008224      0.21059466
C       2.48939869      0.20735355      0.09526469
O       3.42470031     -0.24480059      0.71273123
H      -2.59194756      0.86217919     -0.41873435
H      -3.22243000     -0.83290473     -0.05856462
H      -0.95706042     -1.69393446      0.02510028
H      -0.73430798      1.43741808     -1.60566874
H       1.11341587     -1.07618906      0.84784762
H       2.55227331      1.04376531     -0.60950354
