15
b3lypvtz=-170268.33670334
C       0.93314215      0.01284638      0.09923080
C       0.38924177     -0.90643600      0.88216054
C       0.93857925     -1.87280991      1.91695895
C       0.11082025     -1.55669981      3.19776378
C      -1.09455304     -2.06635489      2.41371599
C      -0.23492933     -2.85369045      1.47859156
C      -0.92267200     -1.59738243      0.95226965
H       0.35140220      0.53314185     -0.65068139
H       1.98275530      0.26469506      0.17771852
H       1.99724841     -2.10281951      1.96742666
H       0.11651875     -0.52197522      3.54748913
H       0.36220782     -2.23256254      4.01546708
H      -2.07779571     -2.32159671      2.78127814
H      -0.25978665     -3.86639173      1.11013104
H      -1.76607921     -1.53406409      0.28197953
