14
b3lypvtz=-203651.21245179
C      -3.07458640      0.63620026      0.05179945
C      -1.63742178      0.42502474     -0.00569858
C      -0.44485761      0.26896438     -0.06067603
C       0.95625836      0.00902562     -0.09529440
N       1.70749233      0.95715683     -0.52856378
O       3.05754455      0.57507407     -0.51156139
C       1.47320977     -1.32890528      0.36616803
H      -3.31720792      1.69675560     -0.03669086
H      -3.48776265      0.27347809      0.99526594
H      -3.58126601      0.10800452     -0.75891111
H       3.49610742      1.36081393     -0.85265033
H       0.65589113     -1.96707924      0.68945536
H       2.01911491     -1.81911536     -0.44137342
H       2.17748392     -1.19539817      1.18873109
