20
b3lypvtz=-210988.68491548
C      -2.41635588     -0.03378193      0.33229709
C      -1.41741332      0.96087901     -0.26116573
C      -0.16800832      0.31765990     -0.87526511
C       0.74502457     -0.45120280      0.09665456
C       1.33280604      0.43375179      1.20137430
C       1.84703436     -1.17349219     -0.66243836
F       2.68857272     -0.26092258     -1.31138439
H      -3.31483376      0.47575059      0.68418648
H      -2.72533321     -0.77169376     -0.41229039
H      -1.99919401     -0.57790592      1.18155304
H      -1.12720965      1.68774506      0.50174308
H      -1.91690925      1.53845364     -1.04355935
H      -0.48639808     -0.37002208     -1.66652305
H       0.42765043      1.09034368     -1.36734863
H       0.16031868     -1.24990294      0.56842723
H       0.55208806      0.88697838      1.81174331
H       1.97436659     -0.14704091      1.86717729
H       1.93581046      1.23606905      0.77384782
H       2.47414723     -1.76101883      0.01234603
H       1.43403632     -1.83064716     -1.43157519
