14
b3lypvtz=-201264.82264997
N       3.05027365     -0.53874563      0.00000019
C       2.08770845      0.28065009     -0.00000122
N       0.73022290     -0.08218946     -0.00000590
C      -0.12295613      0.85971263     -0.00000140
N      -1.52091081      0.68496998     -0.00000625
C      -2.02275648     -0.51274555     -0.73267649
C      -2.02276231     -0.51273403      0.73268021
H       2.68610680     -1.49413494     -0.00000571
H       2.31157547      1.35259251      0.00000756
H       0.16761884      1.91487114      0.00000460
H      -1.27458202     -1.11668554     -1.22871174
H      -2.93671743     -0.32827469     -1.28079684
H      -1.27459092     -1.11666560      1.22873049
H      -2.93672701     -0.32825491      1.28079151
