14
b3lypvtz=-226962.94944717945
C      -1.35774495     -0.72223552      0.09617316
C       0.03290812     -1.38126279      0.31096388
N       0.65605248     -0.14542747     -0.18053681
C      -0.64104257      0.56730993     -0.34980669
O      -0.95351705      0.94458746     -1.65787870
C       1.91290741      0.17028110     -0.38000689
O       1.93707539      1.45399074     -0.85509927
H      -1.97788825     -0.62766202      0.98323963
H      -1.93601050     -1.15639912     -0.71507354
H       0.28901047     -1.60106228      1.34678672
H       0.24906368     -2.25104587     -0.30749441
H      -0.71437843      1.41482646      0.33703530
H      -0.35798469      1.65992841     -1.90958884
H       2.86154890      1.67417097     -0.99112549
