17
b3lypvtz=-217659.14986737
C       2.82500472      0.53631460      0.08692972
O       1.48269012      0.35915135     -0.31387559
C       0.94730945     -0.87249928      0.12291865
O      -0.37245597     -0.99791804     -0.28783592
C      -1.30046207     -0.24097357      0.45117117
C      -1.61238512      1.16489627      0.03585936
C      -2.59460498      0.04390058     -0.22934834
H       3.47840754     -0.24227147     -0.32737670
H       2.92759604      0.52889474      1.17971951
H       3.14968899      1.50374528     -0.29006446
H       1.49464487     -1.70594350     -0.33304315
H       1.02993438     -0.93889101      1.22106359
H      -1.30926397     -0.48517008      1.50984409
H      -1.05854025      1.55021784     -0.80663611
H      -1.84249219      1.88887882      0.80572906
H      -3.50524742     -0.00807821      0.35069238
H      -2.68290014     -0.30206932     -1.24951527
