12
b3lypvtz=-223826.33156986
N       2.52985747     -0.46313199     -0.08915977
C       1.35919676     -0.48307877      0.39463107
C       0.23176907      0.44592277      0.04095656
N       0.37066090      1.69010331     -0.16767781
C      -1.16401911     -0.13543736     -0.01992480
N      -2.22711704      0.51726807      0.14079287
O      -1.24407329     -1.47837637     -0.23003708
H       2.62789471      0.26800886     -0.79994622
H       1.13405104     -1.24255792      1.14606012
H       1.34130618      1.98692632     -0.05612654
H      -2.00238985      1.49791980      0.29495847
H      -0.40039183     -1.84061173     -0.51984587
