11
b3lypvtz=-210605.42778769
N      -2.45757054      0.33083637      0.00009241
C      -1.47672009     -0.56085504     -0.00006714
C      -0.14345262     -0.21717854     -0.00015033
N       0.33416428      1.06822691      0.00063893
C       1.62676436      0.84953253     -0.00016837
N       1.97500068     -0.49188831      0.00004617
N       0.85738984     -1.15942811     -0.00006390
H      -2.21972087      1.31189495      0.00052030
H      -3.42387875      0.05978605      0.00045344
H      -1.74540742     -1.60882205     -0.00020097
H       2.37733414      1.62505023     -0.00036653
