17
b3lypvtz=-194358.21260496
C       1.86714699      1.92730918     -0.18185016
C       1.39099997      0.85568725      0.07530026
C       0.82617097     -0.46271169      0.37112256
C       1.76708527     -1.57850428     -0.11797662
C      -0.58802641     -0.63166885     -0.21885798
C      -1.60572716      0.35533664      0.32499476
O      -2.86865765      0.03341038     -0.25575895
H       2.28810827      2.87531525     -0.40619983
H       0.74735086     -0.54586548      1.46128434
H       1.87033806     -1.54488867     -1.20312429
H       2.75910659     -1.47199742      0.31981121
H       1.36862903     -2.55533809      0.15962367
H      -0.93596996     -1.64367765      0.00093776
H      -0.54504006     -0.53504000     -1.30593465
H      -1.65130635      0.27820160      1.41946130
H      -1.30817341      1.37834535      0.07441040
H      -3.51195402      0.69102950      0.02227820
