17
b3lypvtz=-191943.26193534
C      -1.70225385      0.83123714      0.26630667
C      -1.13733059     -0.05286077     -0.81928182
C       0.28214457     -0.23327617     -1.19023187
C       1.25580400     -0.26415927     -0.01888189
N       1.50375156      0.98997749      0.69075635
C       0.31618771     -1.30808603      0.62976900
N      -0.54457219     -1.38687892     -0.60569535
H      -2.58862533      0.36720822      0.70627471
H      -2.01318750      1.78170413     -0.17237477
H      -0.98387740      1.05366382      1.04931371
H      -1.78870343     -0.11264015     -1.68650678
H       0.59900204     -0.24278046     -2.22671367
H       2.17815523     -0.75980360     -0.34004759
H       1.77788127      1.71385933      0.03531077
H       2.27309309      0.88298259      1.34256937
H      -0.20982511     -0.98625073      1.52815973
H       0.78225592     -2.27399661      0.81137344
