14
b3lypvtz=-201274.63740643
C      -2.70671588     -0.93705739      0.02142521
N      -2.44372460      0.30634980     -0.08369333
N      -1.17754578      0.76489459      0.08514110
C      -0.02358121     -0.11135555     -0.00340824
C       1.25112382      0.73877167      0.05368940
C       2.45819743     -0.07714536     -0.00253477
N       3.40113016     -0.73402787     -0.04686390
H      -3.74436250     -1.22595375     -0.07909831
H      -1.97512032     -1.71809453      0.21634198
H      -1.07755264      1.65943065     -0.36854632
H      -0.02698506     -0.80583708      0.83907775
H      -0.03644567     -0.71435417     -0.92120285
H       1.27510498      1.44431466     -0.78150375
H       1.26375525      1.32550933      0.97460305
