13
b3lypvtz=-192844.32572437
C      -3.27369706      0.55240479     -0.00004354
C      -2.41253124     -0.46866843      0.00017556
C      -1.00357604     -0.31892190      0.00017112
C       0.20261877     -0.24761650      0.00014508
C       1.64842304     -0.14264204      0.00011368
C       2.20680267      1.26140091      0.00008790
O       2.35177528     -1.13176277      0.00010933
H      -4.34055433      0.37734630     -0.00005185
H      -2.93490486      1.57945335     -0.00023110
H      -2.78557144     -1.48760597      0.00037067
H       1.85194837      1.80532974     -0.87787676
H       1.85198764      1.80534424      0.87805971
H       3.29345820      1.22145229      0.00006419
