11
b3lypvtz=-238679.02743497
C       1.94143615     -0.82785119     -1.04144666
C       0.92761668     -0.55057752     -0.46444142
C      -0.29088083     -0.14613035      0.25070569
C      -0.58796171      1.34902759     -0.03073258
O      -1.64345223      1.69413210     -0.48356745
O      -1.36195348     -0.92922742     -0.16088576
O      -0.09468061     -0.16520703      1.65205586
H       2.83181604     -1.09228633     -1.55625994
H       0.21568352      2.05175702      0.23877944
H      -2.10905209     -0.32648973     -0.30994967
H       0.17142857     -1.05714713      1.90574250
