14
b3lypvtz=-180342.91770983
C       0.51605379      1.99472118      0.68610664
N      -0.43011815      1.17661968      0.50335107
C      -0.20215623     -0.07419871     -0.15725139
C      -1.39683057     -0.56289952     -0.97227769
C      -1.10326577     -1.20202777      0.33898855
C       1.12003122     -0.41271359     -0.61877281
C       2.23615818     -0.65858679     -0.98913517
H       0.29503609      2.93064842      1.19179402
H       1.54572570      1.81895411      0.36608248
H      -1.17212025     -1.10776193     -1.87716149
H      -2.22338543      0.12947362     -1.03061718
H      -0.67422847     -2.19296251      0.34901466
H      -1.72778427     -0.94913371      1.18276725
H       3.21688415     -0.89023248     -1.32248894
