16
b3lypvtz=-202054.52041249
C      -0.85807256     -1.48948122      0.88913545
C      -0.83474692     -0.43263111      0.06898957
N      -1.75659276     -0.18701140     -0.94376575
C       0.24805892      0.60840069      0.16159384
N      -0.26138142      1.89027299      0.39611829
N       1.49452124      0.46471313     -0.02056532
C       2.07859185     -0.78620284     -0.45499676
H      -1.65014998     -2.22594230      0.84280761
H      -0.07408842     -1.63973811      1.61393475
H      -1.86365458      0.78209515     -1.19763182
H      -2.63137323     -0.68299273     -0.87688518
H       0.47334874      2.56416874      0.56221517
H      -1.00000094      1.93654094      1.08342270
H       2.73695133     -1.17013103      0.32927106
H       2.71135752     -0.59291217     -1.32460260
H       1.35689023     -1.56732675     -0.70954899
