14
b3lypvtz=-203643.46313022
C      -1.24220284     -0.52506887      0.18987371
C      -0.13636842     -0.61093264     -0.90617553
C       1.13225500     -0.64125759     -0.00431151
C       0.81366484      0.44446829      0.91301908
C      -0.57214857      0.87405764      0.34868759
N      -0.39097214      0.83892151     -1.12858642
O       1.89441693      0.58001505     -0.02857967
H      -2.24532423     -0.46882739     -0.22489666
H      -1.18842257     -1.21844543      1.02892364
H      -0.18899584     -1.28209416     -1.75921402
H       1.67197988     -1.54515096      0.24220411
H       1.07495363      0.48969165      1.96123234
H      -1.07360431      1.73224409      0.78799531
H       0.45076863      1.33237880     -1.42017197
