12
b3lypvtz=-202936.38721207
N      -2.94006406     -0.00001343     -0.49396706
C      -1.90111752     -0.00000751      0.00188632
C      -0.58274637     -0.00000564      0.60561366
C       0.41396785     -1.10979299      0.12427807
C       1.44221557      0.00000400     -0.12293202
O       2.61073685      0.00000871     -0.36440083
C       0.41396126      1.10979245      0.12428968
H      -0.68884230     -0.00001146      1.68936180
H       0.10644538     -1.59748276     -0.80126477
H       0.69048372     -1.86994188      0.85282613
H       0.69047336      1.86993491      0.85284590
H       0.10643627      1.59749060     -0.80124790
