13
b3lypvtz=-218760.04460684
C       2.45745171     -1.17868497     -0.10732982
C       1.94389924      0.02982950      0.11584794
C       0.53590918      0.39022101      0.02583497
F       0.36699478      1.72736395     -0.10566330
C      -0.54566263     -0.39929559      0.07923055
C      -1.91786460      0.06960126     -0.03762567
N      -2.97215602     -0.64782322     -0.00080851
H       1.84777019     -2.02004089     -0.40877238
H       3.51765193     -1.35757481      0.00106794
H       2.59633468      0.85566603      0.37523869
H      -0.38307834     -1.45966956      0.22505202
H      -2.05051026      1.14194618     -0.17057829
H      -2.73673085     -1.63508990      0.12659986
