13
b3lypvtz=-270398.38101492
C      -2.26308968      0.81848582      0.55235863
C      -1.18877281      0.00394706     -0.12412594
O      -1.35547546     -0.52866189     -1.19612263
C       0.12798356     -0.14191360      0.63371079
C       1.30403452     -0.40444275     -0.27745293
F       1.63408526      0.74510155     -0.94318898
F       2.39508657     -0.76323464      0.46918549
H      -3.20126496      0.72229087      0.01207857
H      -2.39130313      0.50623115      1.59130785
H      -1.96022546      1.86887627      0.57230416
H       0.01981556     -0.98929733      1.31756286
H       0.33911345      0.73764427      1.24379586
H       1.11970757     -1.18066278     -1.01795573
