17
b3lypvtz=-240996.90491784
C       1.71060430      1.15489212     -0.66208715
C       1.24827415      0.03666294      0.26580082
O       2.28891091     -0.92620453      0.46247916
C      -0.03086234     -0.66402432     -0.20195534
C      -1.28334036      0.20092692     -0.19553156
O      -2.34221128     -0.61868717     -0.64514145
O      -1.56576715      0.75905059      1.07258923
H       2.64962047      1.57199477     -0.29920872
H       1.87204490      0.77763046     -1.67633581
H       0.97845590      1.96179600     -0.71675680
H       1.07526040      0.45184107      1.25939247
H       2.51430881     -1.30843764     -0.39264230
H       0.10861115     -1.05370965     -1.21482101
H      -0.21155953     -1.52555111      0.44680552
H      -1.17142035      1.07190520     -0.84726795
H      -3.13971616     -0.07875501     -0.67374806
H      -1.65278583      0.03220435      1.70192796
