12
b3lypvtz=-223868.31357892
N       3.19170661     -0.41351261     -0.50875932
C       2.21530842     -0.00847282     -0.05605136
C       0.97759455      0.49101482      0.55258542
N      -0.13103277     -0.41667451      0.35091507
C      -1.35880874      0.08087026     -0.04600330
N      -2.36325588     -0.86594248     -0.07355275
O      -1.53988718      1.25155972     -0.32166085
H       1.16889845      0.68616660      1.61228219
H       0.69686831      1.43923740      0.09303878
H      -0.09439464     -1.31087443      0.81034584
H      -3.20073370     -0.54460114     -0.53073018
H      -2.11766442     -1.82333480     -0.26682253
