15
b3lypvtz=-214505.81899685
N      -0.97847197      1.29735473     -0.64933246
C      -0.37828866      0.17365070      0.05061048
C      -1.41514342     -0.45322974      0.95759906
O      -1.16805310     -1.05035590      1.97426974
C       0.27794614     -0.84291614     -0.94075044
N       1.61204909     -0.32751488     -0.56450171
C       1.05155918      0.32980508      0.64235258
H      -1.14193596      2.07482906     -0.01846046
H      -0.35724366      1.63197238     -1.37643186
H      -2.45535739     -0.33583860      0.59235410
H       0.09009560     -1.88454763     -0.66549786
H       0.00507612     -0.69243841     -1.98711923
H       2.30503868     -1.04016134     -0.37682650
H       1.38954172      1.35718547      0.79256227
H       1.16328763     -0.23779477      1.56897228
