16
b3lypvtz=-202065.95672873
C       1.62912526     -1.54053263     -0.50454741
C       1.26461098     -0.57435488      0.63287914
C       0.47737751      0.62565734      0.13901840
N       1.23716088      1.71051416     -0.16861486
N      -0.79250067      0.70603502     -0.07584423
C      -1.63720757     -0.36409327      0.17512566
N      -2.87936800     -0.38303855     -0.09497403
H       0.73517449     -1.94315078     -0.97961694
H       2.21836029     -1.03775705     -1.27188900
H       2.21492441     -2.37580045     -0.11986616
H       0.69105134     -1.09779666      1.39587567
H       2.17625768     -0.22283220      1.12094305
H       2.19153587      1.77900920      0.13095791
H       0.76197308      2.54662400     -0.46470079
H      -1.22544495     -1.25819515      0.65099510
H      -3.13590559      0.50592891     -0.53128450
