13
b3lypvtz=-237092.42141192
N      -2.65418712      0.87655663      0.00007028
C      -2.24867835     -0.31895861     -0.00000040
C      -0.83287407     -0.82255313     -0.00005986
O       0.06824267      0.28338326     -0.00006297
C       1.39310625     -0.04297461      0.00001222
N       2.14828834      1.08294657      0.00002405
O       1.81347388     -1.17505764      0.00008235
H      -1.85919752      1.51881241      0.00008106
H      -2.99343960     -1.11886553     -0.00001834
H      -0.65990814     -1.45217529      0.87708067
H      -0.65996809     -1.45213032     -0.87724549
H       3.14588679      0.98571860     -0.00004251
H       1.72844696      1.99350165     -0.00017305
