9
b3lypvtz=-235529.14522474
O       1.01553666     -0.01718130      0.05944505
C       2.21039613      0.06036778      0.06187264
C       2.98805167      1.31049154      0.06392175
N       4.26815267      1.34555347      0.06643371
C       4.90388808      0.11413584      0.06718703
N       4.36849812     -1.05104047      0.06552722
O       2.97339850     -1.08930011      0.06267189
H       2.41893380      2.23480104      0.06316026
H       5.98544435      0.11917222      0.06938046
