12
b3lypvtz=-252092.40534692
C      -1.03962348      1.28855287     -0.33838122
C      -0.36638859     -0.01514326     -0.07369559
C      -0.96763659     -1.19689555     -0.01161442
F      -2.30810970     -1.27945566     -0.19790056
O       1.00085133      0.16548163      0.10411218
N       1.73952375     -1.04539884      0.36649908
N       2.91971662     -0.82505270      0.51251120
H      -0.62810323      1.75527825     -1.23576665
H      -2.10743221      1.14211878     -0.47547774
H      -0.88051846      1.97618536      0.49485518
H      -0.50194240     -2.14811490      0.17778009
H       3.13966295      0.18244401      0.41728747
