17
b3lypvtz=-215291.94156179
C      -2.66699750     -0.83314375     -0.04200018
C      -1.67614902      0.31127577     -0.03593952
O      -0.37211230     -0.24541015      0.20012544
C       0.75241996      0.50205281      0.01229052
N       0.55534557      1.87108267     -0.14730460
N       1.90620327     -0.00818917     -0.06011100
C       2.04519749     -1.45304994     -0.04510621
H      -3.67733688     -0.45101006     -0.19567599
H      -2.64201871     -1.37080463      0.90582081
H      -2.43768102     -1.53623766     -0.84245789
H      -1.92388772      1.02095448      0.76051976
H      -1.67870808      0.84853936     -0.98530483
H      -0.09819736      2.29683347      0.49325210
H       1.44110611      2.35400617     -0.16597293
H       1.99250435     -1.84674423      0.97575710
H       3.02391407     -1.71602099     -0.44659812
H       1.27748278     -1.96834917     -0.63146947
