16
b3lypvtz=-204442.23332431
N      -2.53122461     -0.52068537     -0.20664924
C      -1.14271216     -0.77558397      0.07594994
C      -0.32950235      0.28236553      0.19570750
O      -0.81457591      1.54672548      0.07217561
C       1.12236582      0.24994577      0.46981470
C       2.11381993      0.26606009     -0.67228218
C       1.97006186     -0.95769387      0.18928884
H      -3.13861592     -0.89133471      0.51498756
H      -2.82494529     -0.93457494     -1.08400059
H      -0.77354815     -1.78452627      0.20479324
H      -1.76875968      1.42808409     -0.09068422
H       1.40360815      0.84925625      1.32817038
H       2.99801402      0.87852968     -0.56417911
H       1.71286692      0.22250291     -1.67516209
H       1.49883663     -1.82465396     -0.25022899
H       2.75792174     -1.18819173      0.89266366
