16
b3lypvtz=-227761.65870383
N      -1.97223203     -0.59999777     -0.34611674
C      -0.75113553     -0.50016254      0.45228646
C      -0.52083314      0.94268399      0.93495220
C       0.35647643      1.56551894     -0.16795549
O       0.78919281      0.47419079     -1.01145218
C       0.53898675     -0.74059055     -0.34274445
O       1.56647033     -1.06987202      0.57287684
H      -2.12494931     -1.55652229     -0.64477523
H      -1.88895006     -0.04217162     -1.18967924
H      -0.82518437     -1.19851551      1.28395820
H       0.00763604      0.93625777      1.88580853
H      -1.46834844      1.46112657      1.06565294
H       1.22843657      2.07847641      0.24074132
H      -0.18629148      2.26622034     -0.80331426
H       0.44328128     -1.50808214     -1.11579534
H       2.40072215     -1.07428538      0.09111045
