16
b3lypvtz=-204430.74927343
C       1.10891310     -1.72504464      0.25369787
O       0.38928563     -0.90720268     -0.66663543
C      -0.34792225      0.12264364     -0.07610146
C       0.42429959      1.34324022      0.28398646
N       1.62789230      1.59710910     -0.01317693
C      -1.73579329      0.32361208     -0.63352270
C      -1.56728106     -0.24134045      0.74569336
H       0.43016946     -2.25557322      0.92740714
H       1.81432146     -1.14266821      0.85195283
H       1.65796934     -2.44992131     -0.34346689
H      -0.13472405      2.09107540      0.85301735
H       2.01912491      0.82624857     -0.56050716
H      -2.01458289     -0.35750452     -1.42436668
H      -2.09798903      1.33581870     -0.74673539
H      -1.81202718      0.37670998      1.59900684
H      -1.76082105     -1.29613566      0.87771979
