14
b3lypvtz=-203658.14003716
C       2.55731760      0.59434393     -0.37654017
O       1.43591021     -0.14443450      0.08643505
C       0.21780191      0.36894677     -0.25450214
C      -0.88396206     -0.39633746     -0.15067621
C      -2.16223131      0.15139685     -0.44384823
C      -3.26462345      0.57675542     -0.67084179
N      -0.82857645     -1.76091942      0.19158615
H       3.44237111      0.11617863      0.03689205
H       2.51514208      1.63249803     -0.03070052
H       2.61395139      0.58098657     -1.46927074
H       0.17585094      1.39757911     -0.58422500
H      -4.22998007      0.96313640     -0.88170754
H       0.03831413     -2.01017056      0.64552039
H      -1.62728601     -2.06995979      0.72482282
