18
b3lypvtz=-205199.10100853
N      -2.58164479     -0.99242908      0.02867348
C      -1.96352250      0.32901355     -0.12200608
C      -0.47763190      0.34298664     -0.41278299
C       0.36684908      1.53526796     -0.03595382
C       0.51686461      0.23674539      0.71028592
C       1.77080179     -0.59441611      0.59349927
O       2.26156432     -0.53273741     -0.74421135
H      -2.48107035     -1.52332266     -0.82928040
H      -2.09864570     -1.52072887      0.74715014
H      -2.15600787      0.89541681      0.79432130
H      -2.49786251      0.85282651     -0.91942880
H      -0.18663214     -0.14964470     -1.33357243
H      -0.11487232      2.35935289      0.47469462
H       1.16215844      1.81766439     -0.71059054
H       0.09970436      0.21519738      1.71232105
H       2.52451234     -0.21599445      1.29612152
H       1.54802664     -1.63297530      0.87182166
H       3.08043250     -1.03193593     -0.79395853
