13
b3lypvtz=-216112.53920858
C      -2.15601142      1.36394573     -0.19515012
C      -1.38416602      0.47946624      0.05198041
C      -0.45921657     -0.61712789      0.35925557
O      -0.99317565     -1.50333747      1.34160907
C       0.84890870     -0.08927944      0.90729132
C       1.92529111      0.33447654      0.01465744
O       1.99269600     -0.91532266      0.70967677
H      -2.83726035      2.14858963     -0.41276719
H      -0.23393242     -1.16312951     -0.56543738
H      -1.88745674     -1.74569146      1.08040995
H       0.76745407      0.35363351      1.89539979
H       1.79159656      0.26059829     -1.06020390
H       2.62527273      1.09337849      0.34717827
