17
b3lypvtz=-191960.51597348
C      -2.12456723      0.26420339      0.59290621
C      -1.27009774     -0.26835516     -0.52750861
N      -1.56289181     -1.23982781     -1.29213541
C       0.05069520      0.43756488     -0.75845282
N       0.86840530      0.43485164      0.45433997
C       2.30019576      0.61886025      0.25531592
C       1.75489113     -0.71485030      0.61821903
H      -3.01411565     -0.34752382      0.73985843
H      -2.43567569      1.28951835      0.37410356
H      -1.54919584      0.30441665      1.51836432
H      -2.47748001     -1.62716557     -1.05262316
H      -0.14335089      1.48299423     -1.02082581
H       0.54698338     -0.04312334     -1.60996305
H       2.65743760      0.74750395     -0.76153496
H       2.80391809      1.22685938      0.99620550
H       1.85588290     -1.09013546      1.62857223
H       1.73896551     -1.47569127     -0.15484135
