15
b3lypvtz=-216907.31769568
C      -3.16000086     -0.64821347      0.26491368
C      -2.21774259      0.02111019     -0.38419795
C      -1.03796829      0.65895246      0.27266670
O       0.15289969      0.21009268     -0.38393678
C       1.30580662      0.85375352      0.01135613
C       2.42924339      0.15572561      0.15268318
O       2.52646606     -1.19163753     -0.01672699
H      -3.11427234     -0.79747903      1.33734686
H      -4.01506257     -1.06624783     -0.24933368
H      -2.27832707      0.15049483     -1.45992632
H      -0.99883221      0.41256481      1.33863551
H      -1.09810118      1.75191402      0.18078955
H       1.26221302      1.92705686      0.14723754
H       3.36912465      0.62703613      0.39637251
H       1.64634369     -1.51787525     -0.24850492
