16
b3lypvtz=-204452.87442289
C      -2.36890266     -0.00920920      0.16599879
C      -1.05424366      0.01365877     -0.07800424
N      -0.29803374      1.17073747     -0.27760610
C       1.07002431      1.21599666      0.23538005
C       1.78566914     -0.06388234     -0.17387180
C       0.93950991     -1.24855813      0.25813788
O      -0.38716463     -1.16444147     -0.27420297
H      -2.93285352      0.90675542      0.25833650
H      -2.89214954     -0.95040673      0.20594323
H      -0.83130637      2.00169665     -0.07223591
H       1.56525562      2.09241934     -0.18366480
H       1.09584000      1.31360675      1.33157948
H       1.91834778     -0.08416550     -1.25719814
H       2.77108294     -0.11779875      0.29287795
H       1.33765616     -2.19234759     -0.10981898
H       0.88398127     -1.30197236      1.35278906
