15
b3lypvtz=-240235.13855582
C       0.54558104      0.43175618      0.02498507
C       1.74758318     -0.49371616      0.07844001
O       2.86767898      0.30779634      0.44477668
C      -0.74048337     -0.25876238     -0.35165109
O      -0.81464454     -1.45216634     -0.56273471
C      -1.99455857      0.59236400     -0.46578645
O      -3.11516367     -0.17521553     -0.80378445
H       0.73284127      1.24430781     -0.68381984
H       0.40989916      0.91860904      0.99595597
H       1.89725622     -0.96661713     -0.89691440
H       1.57153021     -1.29075497      0.80687508
H       3.64628418     -0.25387711      0.49105499
H      -2.14854892      1.11033702      0.49017719
H      -1.81231278      1.37243498     -1.21726074
H      -2.79294241     -1.08649576     -0.89032485
