12
b3lypvtz=-223859.64884024914
C       0.50539778     -0.59398361     -0.45451296
C      -0.71266696     -0.01667176     -0.49286536
N      -1.89133613     -0.73727509     -0.69245886
N      -0.92681726      1.34541467     -0.33502901
N       1.62582536      0.14405218     -0.06743732
C       2.81393046      0.05104645      0.05584142
O       3.97880920      0.06864897      0.21306378
H       0.64757563     -1.62948704     -0.72729509
H      -1.74353947     -1.72040188     -0.86278676
H      -2.49062481     -0.32886402     -1.39781432
H      -0.09448372      1.85257241     -0.07388057
H      -1.71207008      1.56494873      0.26155395
