14
b3lypvtz=-226972.84195833
N      -0.98491878      1.52946977     -0.47741941
C      -0.38892449      0.25984168     -0.60668038
C      -1.08583165     -0.87393531     -0.69336195
O      -2.45785944     -0.85768820     -0.52141380
C       1.08867172      0.27589457     -0.75178565
C       1.99755719     -0.16322101      0.32263452
O       1.76539635     -0.97570573     -0.83130536
H      -1.97845659      1.46464942     -0.30580907
H      -0.54922253      2.10897633      0.22795591
H      -0.60803519     -1.81938513     -0.89889064
H      -2.82349118     -1.69548530     -0.81268163
H       1.46098663      1.03167393     -1.44056014
H       1.56893740     -0.54397081      1.24378984
H       2.99519057      0.25888580      0.39532777
