16
b3lypvtz=-181145.44169697
C      -3.68651844     -0.20032712      0.00000522
C      -2.47971156      0.37756431      0.00000213
C      -1.21476973     -0.31690618     -0.00000137
C      -0.02802900      0.31838995     -0.00000421
N       1.20601748     -0.28791987     -0.00000949
C       2.41686876      0.37599782      0.00000085
C       3.62316081     -0.19558844      0.00001008
H      -3.80050634     -1.27767905      0.00000520
H      -4.59295814      0.38809008      0.00000760
H      -2.42584090      1.46347326      0.00000210
H      -1.23768516     -1.40321735     -0.00000160
H       0.01352978      1.40162321     -0.00000405
H       1.22996302     -1.29586536     -0.00000364
H       2.31635105      1.45469994     -0.00000103
H       4.51098294      0.41619011      0.00001553
H       3.75392843     -1.27005830      0.00001169
