16
b3lypvtz=-227751.52719314
C       1.37060380      1.37890964     -0.41962570
C       1.26102372     -0.06767680     -0.04640258
N       2.38868438     -0.59307387      0.60813514
C       0.16558378     -0.80370758     -0.27067457
O      -0.96001527     -0.29545066     -0.89477034
C      -2.12126840     -0.31920060     -0.08382815
O      -2.10370481      0.63671354      0.93990930
H       1.64802454      1.97524566      0.45259828
H       0.43179589      1.74756267     -0.82102383
H       2.15062470      1.52352628     -1.17399969
H       3.26412336     -0.25441526      0.23429978
H       2.40163679     -1.60131906      0.66797329
H       0.11493006     -1.85861376     -0.00771875
H      -2.25362826     -1.33104423      0.32292824
H      -2.95108478     -0.06232686     -0.73747851
H      -1.40811750      0.39825388      1.56344311
