14
b3lypvtz=-203696.87162871
O       2.22506118      0.65136190     -0.54178114
C       0.93026892      0.32983783     -0.23879686
C       0.77402637     -1.11531668      0.09601524
C      -0.65494654     -1.46383722      0.42997397
N      -1.65496644     -0.69199460      0.44775827
C      -1.48861665      0.71657337      0.11784934
C      -0.09839881      1.17066950     -0.23051146
H       2.27839733      1.59115351     -0.75074865
H       1.42491507     -1.38160673      0.93748780
H       1.11977912     -1.73701793     -0.73860545
H      -0.83514956     -2.50933174      0.68495069
H      -2.18230605      0.93262025     -0.70331513
H      -1.87964266      1.28844093      0.96765541
H       0.04157873      2.21864760     -0.47803203
