18
b3lypvtz=-205215.66606637
C       2.85238948     -0.64206119     -0.24112965
C       1.53119957      0.00155393      0.04288933
O       1.52084070      1.37853488     -0.03412613
C       0.41306079     -0.65433103      0.35408541
C      -0.92177612     -0.02607717      0.62045963
C      -1.97438358     -0.36832176     -0.45263813
N      -3.31286070      0.18088233     -0.23301385
H       3.19896248     -0.39422299     -1.24966058
H       3.61587744     -0.29494140      0.46288329
H       2.78703375     -1.72496415     -0.16196368
H       2.40397610      1.69308513     -0.24487320
H       0.47533809     -1.73495067      0.39340691
H      -0.81738263      1.05844062      0.68372887
H      -1.30303233     -0.36517270      1.59129436
H      -2.06742451     -1.45461190     -0.53685285
H      -1.61910107     -0.01669148     -1.42397968
H      -3.68408435     -0.13890924      0.65484111
H      -3.27191713      1.19253480     -0.17748514
