15
b3lypvtz=-214519.45234926
C       0.52935037      2.02932471     -0.45958680
C       0.10250677      1.02927603      0.62876008
C      -0.11283255     -0.36263615      0.10420042
C      -1.47737311     -0.83476023     -0.18050091
O      -2.47897227     -0.17440650     -0.00425411
N       0.79932277     -1.24099032     -0.15298663
N       2.09130224     -0.93209861      0.00989550
H      -0.24795923      2.11975171     -1.21806224
H       0.69384294      3.01722447     -0.02761629
H       1.44850815      1.71968631     -0.95823268
H       0.84438723      1.01655392      1.43553741
H      -0.83600292      1.35868883      1.07350959
H      -1.51607233     -1.86613714     -0.57660466
H       2.34323018     -0.16744761      0.62567448
H       2.68486675     -1.74291242      0.05890483
