16
b3lypvtz=-181142.01917244
C       2.26787583      0.40707328     -0.53851910
C       1.01320716      0.08556095     -0.20455759
N       0.56467352     -1.13890607      0.29077116
C      -0.85420047     -1.35219696      0.00293460
C      -1.38945544      0.06012521     -0.14815216
C      -1.05776394      1.03562791      0.93867348
C      -0.18140462      0.96635317     -0.29452428
H       3.07288785     -0.31414588     -0.49488074
H       2.51256844      1.41361003     -0.84116114
H       1.18619455     -1.92800461      0.22542924
H      -1.01372782     -1.90811633     -0.93021128
H      -1.33414451     -1.90798266      0.81292889
H      -2.27975500      0.20968349     -0.74115639
H      -0.65276176      0.66392862      1.87033927
H      -1.69393841      1.90521535      1.02896493
H      -0.16015537      1.80197450     -0.97697890
