16
b3lypvtz=-181041.0018251
C      -0.83147956      0.00096073     -1.06258060
N      -0.84566296      1.28491985     -0.22963506
C      -1.34755089      0.34974432      0.91946781
C      -0.20024142     -0.48994744      0.26166433
C       1.09542621     -1.34595030      0.21656970
C       1.77575439     -0.03282876     -0.38280209
C       0.58612066      0.77782860      0.25713917
H      -0.21501442      0.06561593     -1.95612374
H      -1.82838021     -0.36516686     -1.30946103
H      -2.38703648      0.05074122      0.77945317
H      -1.16613442      0.74609464      1.91743939
H       1.09706328     -2.24510087     -0.39997298
H       1.49482798     -1.58219203      1.20279719
H       2.75256784      0.22535485      0.02250016
H       1.84218844     -0.04489939     -1.46679332
H       0.85855157      1.24692551      1.20163790
