14
b3lypvtz=-227018.449623
C      -3.22610215      0.28682907      0.06949061
N      -2.01098394     -0.48453098     -0.10975620
C      -0.77324812      0.04903242     -0.04567579
C       0.40557099     -0.61306800     -0.00987065
C       1.64819483      0.15610228      0.01224722
O       1.73173573      1.36078793      0.00180472
O       2.80110793     -0.58390299      0.05200508
H      -4.02468915     -0.12308393     -0.54881086
H      -3.04838381      1.31325961     -0.24690243
H      -3.56471475      0.30175123      1.11031414
H      -2.09376691     -1.48626979     -0.04827313
H      -0.73523397      1.13318504     -0.04435244
H       0.43505720     -1.69677651      0.00027593
H       2.59026212     -1.52390738      0.05493680
