10
b3lypvtz=-228109.58057861
F       1.04943822     -0.08594901     -0.20616542
C       2.36274818     -0.11124689     -0.00480707
N       2.95391576      1.06597556      0.01848978
C       4.27210209      1.02986059      0.22124000
C       4.96245461     -0.16132255      0.39384299
C       4.20780098     -1.32467144      0.34495452
N       2.88902247     -1.30997636      0.14338381
H       4.78021241      1.98697862      0.24436902
H       6.02955312     -0.18190524      0.55739875
H       4.66315217     -2.30034328      0.46959363
