16
b3lypvtz=-204416.14306799
C      -2.38195628     -0.29993847      0.09983508
N      -1.58624671     -0.04085584      1.31153569
C      -1.00352564      0.22844190     -0.01372638
C       0.15961814     -0.64385749     -0.42101162
C       1.44984368     -0.20569453      0.22477607
C       2.39443121      0.69495433     -0.44241880
O       2.66253775     -0.70761564     -0.34879920
H      -3.20622424      0.36326768     -0.13344702
H      -2.57231207     -1.34692491     -0.10214331
H      -1.88807446      0.82037052      1.75342204
H      -0.91743898      1.27073084     -0.30718096
H      -0.05151610     -1.67525148     -0.12805625
H       0.27893295     -0.63029095     -1.50763913
H       1.44267447     -0.21463750      1.31145511
H       3.04761003      1.33175431      0.14579378
H       2.17174623      1.05554723     -1.44259510
