11
b3lypvtz=-264604.28931837
C      -0.49487742      0.37853559     -2.05158531
C      -0.42890280      0.04180440     -0.76367820
O      -1.43730245     -0.55150498     -0.11400707
O       0.75624039      0.33461967     -0.09320819
C       0.97395538      0.05773105      1.19743086
N       0.13702934     -0.50096375      1.96707892
F       0.54427528      0.97659623     -2.67349126
H      -1.36248243      0.19851202     -2.66346401
H      -1.15961579     -0.70350096      0.82121017
H       1.97498798      0.38880286      1.46743754
H       0.49669253     -0.62063212      2.90627653
