14
b3lypvtz=-224616.66584662
C      -0.66866858     -0.52992240     -0.02973736
C       0.40611011      0.44708517      0.43296102
N       1.65361581      0.47359497      0.05089499
C       2.17866816     -0.52651638     -0.73125316
O       1.72481508     -1.63786251     -0.94971767
N      -0.02056250      1.36618256      1.30344179
N      -2.01487231     -0.09711867      0.36712414
H      -0.54783524     -0.69081174     -1.10163704
H      -0.43969549     -1.49154014      0.42782159
H       3.15130632     -0.23090868     -1.15767676
H      -0.99085614      1.34558855      1.57673523
H       0.63346279      2.03434667      1.67191146
H      -2.60494964     -0.89502614      0.55737316
H      -2.46053837      0.43290873     -0.37106219
