14
b3lypvtz=-227000.79804505
C      -2.39098244     -1.00261338      0.02846390
N      -1.99083787      0.17416719     -0.17752674
C      -0.89546106      0.67616268      0.63264604
C       0.26110452      1.13743543     -0.24040647
O       0.88936929      0.02805691     -0.92789348
C       1.87223202     -0.61210218     -0.28144753
O       2.28218390     -0.36603159      0.81944844
H      -3.20879209     -1.40037387     -0.56823704
H      -1.95875713     -1.66403950      0.78964582
H      -1.25587248      1.55711468      1.17242636
H      -0.53934346     -0.05136924      1.37328357
H       1.00719814      1.65121742      0.36243518
H      -0.10011601      1.78627138     -1.03445504
H       2.25785266     -1.41199592     -0.92687901
