17
b3lypvtz=-191985.31851762
C       2.39777434      0.00000052      0.14223319
C       1.06895050      0.00000016     -0.07455596
N       0.33250865     -1.17361259     -0.25662553
C      -1.03773948     -1.24038648      0.24411953
C      -1.79939417     -0.00000048     -0.20321248
C      -1.03774000      1.24038627      0.24411834
N       0.33250818      1.17361245     -0.25662658
H       2.95373190      0.92437381      0.18839761
H       2.95373228     -0.92437249      0.18839843
H       0.87911387     -1.99126033     -0.03661951
H      -1.50239016     -2.14350210     -0.15387517
H      -1.07300674     -1.30969906      1.34275061
H      -2.80280354     -0.00000049      0.22541026
H      -1.89067832     -0.00000103     -1.29103755
H      -1.07300735      1.30969991      1.34274935
H      -1.50239103      2.14350132     -0.15387725
H       0.87911307      1.99126062     -0.03662130
