17
b3lypvtz=-194349.1648721576
C      -1.94229691      0.36553426      0.83192946
C      -0.99870816      0.19656014     -0.34953504
C       0.43550476      0.06740948      0.07194573
C       1.55782407      1.05818343      0.00034961
C       1.67033136     -0.27426736     -0.67085542
C       1.23033132     -1.13506788      0.47621531
O      -1.44702991     -0.95876422     -1.06574951
H      -1.88729236     -0.50835717      1.48196148
H      -2.96908181      0.47436003      0.48266325
H      -1.67172587      1.24824895      1.41195743
H      -1.07681612      1.08359708     -0.99370196
H       2.15702729      1.26305735      0.88629296
H       1.40121788      1.92022125     -0.64056391
H       1.83013016     -0.51992480     -1.70762943
H       0.79509858     -2.09618181      0.22890554
H       1.80628953     -1.12067822      1.40015977
H      -0.89080379     -1.06393050     -1.84434528
