17
b3lypvtz=-217703.98009172
C      -2.62248298     -0.71911911      0.08348236
C      -1.32824445      0.04790651     -0.05782790
O      -1.32541919      1.23085404     -0.33505452
C      -0.04298610     -0.72804938      0.16592657
C       1.22142821      0.00021096     -0.30181919
C       2.47286669     -0.83112243     -0.07550574
O       1.39154188      1.22452188      0.40037284
H      -3.46540935     -0.03273640      0.09356238
H      -2.72903214     -1.40685570     -0.75978952
H      -2.61905916     -1.32754639      0.98988477
H       0.03134904     -0.92620280      1.24213551
H      -0.13245728     -1.70687039     -0.31575882
H       1.11856133      0.20270038     -1.37662163
H       2.59761661     -1.04973166      0.98663598
H       2.42455191     -1.77375112     -0.62318228
H       3.34964003     -0.27881662     -0.41254063
H       0.60488895      1.75337324      0.21066982
