13
b3lypvtz=-216136.18190812
C       2.79957745      0.40453703      0.34400306
C       1.60799286      0.44951323      0.21380816
C       0.15301444      0.53150104      0.06307920
O      -0.46064172      1.20827034      1.16239077
C      -0.48750088     -0.86171643     -0.01367515
C      -1.97370199     -0.80965709     -0.28773091
O      -2.52491635     -1.51139741     -1.09722007
H       3.85407940      0.35829079      0.45851561
H      -0.05930287      1.06968156     -0.86986166
H      -0.01977140      2.05470341      1.28852353
H      -0.00788177     -1.46605269     -0.78180991
H      -0.33677513     -1.34693529      0.95573898
H      -2.54417204     -0.08083849      0.31743838
