9
b3lypvtz=-256355.7320405622
C      -0.22480405      0.20071104     -0.17562821
N      -0.78576486      1.28471935      0.06026025
N       0.71139671     -0.56620558      0.63521927
N       0.93473643      0.00961949      1.70558196
N      -0.51291056     -0.49227710     -1.49864273
O       0.05474594     -1.55100371     -1.69320506
O      -1.28258695      0.06812123     -2.24614851
H      -0.49241420      1.62342725      0.98321716
H       1.59760154     -0.57711196      2.22934586
