12
b3lypvtz=-223832.37050141
O      -2.05769107      0.91255993      0.65552523
C      -1.53326221     -0.16936794     -0.09103266
C      -0.03726737     -0.13851656     -0.18962667
N       0.62162251      1.01745479     -0.14246037
N       1.89035103      0.66206243     -0.28944751
H       2.63620174      1.33676461     -0.27434010
N       2.12165790     -0.63072832     -0.42916880
C       0.90446269     -1.16628673     -0.37011292
H      -1.49800794      1.67990195      0.49039800
H      -1.95957304     -0.18400387     -1.10367810
H      -1.85093182     -1.08994648      0.40153828
H       0.76273759     -2.22989380     -0.45189436
