15
b3lypvtz=-193606.91468228
C       3.63169977     -0.21943172      0.00000402
C       2.43650424      0.37740708      0.00000238
C       1.16597276     -0.31391580      0.00000214
C      -0.00555818      0.32725373      0.00000047
O      -1.18702149     -0.34936000     -0.00000071
C      -2.35187945      0.36454835      0.00000400
C      -3.53524836     -0.23004428      0.00001111
H       4.54811618      0.35357558      0.00000415
H       3.72631856     -1.29846892      0.00000504
H       2.39474856      1.46324985      0.00000108
H       1.16567584     -1.39808359      0.00000343
H      -0.08341593      1.40996832     -0.00000063
H      -2.23067676      1.44258948      0.00000012
H      -4.43219270      0.36914120      0.00001279
H      -3.62815903     -1.30643528      0.00001460
