13
b3lypvtz=-242072.6090927
C       2.06776862      0.33810447      0.30963656
C       0.75497189     -0.30937295     -0.01000887
N       0.49867992     -1.41014430     -0.55867089
O      -0.27565666      0.52183510      0.39552188
C      -1.55322611      0.06024792      0.31814744
C      -2.48630991      0.55258310     -0.47129166
F      -1.79796841     -0.88974300      1.22491249
H       2.89515120     -0.27179096     -0.04466772
H       2.15947772      0.47930146      1.38749784
H       2.12159459      1.32460383     -0.15254827
H       1.34891929     -1.90452489     -0.80919835
H      -2.23448914      1.31982853     -1.18428324
H      -3.49881300      0.18907171     -0.40504720
