17
b3lypvtz=-191978.65267273
C      -2.71435521     -0.89479375      0.20246355
C      -1.68070384     -0.04924393      0.04505873
N      -1.84447231      1.32723654     -0.13199086
C      -0.31008525     -0.56337442     -0.01886364
C       0.78219989      0.13604872     -0.33445041
C       2.16575030     -0.43460611     -0.38535336
N       3.07189264      0.34824309      0.46688376
H      -3.73663598     -0.54446855      0.25636184
H      -2.54969635     -1.96049675      0.24402260
H      -2.77063020      1.66253438      0.08387334
H      -1.13717373      1.89321820      0.31237784
H      -0.21088724     -1.61862410      0.21255008
H       0.71191963      1.18878735     -0.58608035
H       2.54551955     -0.35671308     -1.40947722
H       2.12966729     -1.50484001     -0.14056986
H       2.83691533      0.21004335      1.44307654
H       4.02905747      0.03951507      0.34529943
