15
b3lypvtz=-216937.82526729
C       2.27738381     -1.10147327     -0.26403107
C       1.43024975     -0.13471142      0.07643223
C       1.84408704      1.29815466      0.25797517
C      -0.01107660     -0.45380724      0.34203528
O      -0.83290688      0.34175970     -0.55906809
C      -2.15630692      0.25566090     -0.37717762
O      -2.71514412     -0.40941462      0.45016206
H       3.33053716     -0.90363025     -0.41682333
H       1.94806595     -2.12426708     -0.39536604
H       1.29522718      1.94890682     -0.42556558
H       2.90998685      1.42948783      0.07897367
H       1.61973640      1.64370806      1.27134780
H      -0.29533722     -0.20084097      1.36603729
H      -0.23037516     -1.50760208      0.17884058
H      -2.66038524      0.89580596     -1.11323535
