19
b3lypvtz=-195140.59699556
C      -1.54177301      1.25731151     -0.26091491
C      -0.74234643     -0.00000228      0.01253395
C      -1.54177204     -1.25731613     -0.26091570
O      -0.00000261     -0.00000037      1.25035964
C       0.74234594     -0.00000068      0.01253677
C       1.54177259      1.25731266     -0.26091226
C       1.54177392     -1.25731480     -0.26090633
H      -1.80850564      1.32137647     -1.31838033
H      -1.00802900      2.16090609      0.01699837
H      -2.47073705      1.22991771      0.31286543
H      -1.80856199     -1.32134340     -1.31836892
H      -1.00800415     -2.16091673      0.01693173
H      -2.47070500     -1.22995278      0.31291646
H       2.47070251      1.22995120      0.31292492
H       1.00800301      2.16091398      0.01692957
H       1.80856817      1.32133687     -1.31836424
H       1.00802690     -2.16090950      0.01700076
H       2.47073278     -1.22992228      0.31288250
H       1.80851610     -1.32137854     -1.31836940
