17
b3lypvtz=-194381.99919243
C      -2.06845219     -0.87591337     -0.49850327
C      -1.24183154      0.36648598     -0.25268181
C      -0.78393776      0.76065655      1.10734548
C       0.25868795      0.36184439      0.06375168
C       1.12911243      1.43052955     -0.55689839
C       0.92180131     -0.94137309      0.29025154
O       2.05865648     -1.19311283     -0.03377458
H      -1.86729586     -1.66284813      0.22717794
H      -3.13073669     -0.63305126     -0.42700879
H      -1.88811567     -1.28443171     -1.49465685
H      -1.50368737      1.19145412     -0.90552103
H      -0.79835120      1.80217326      1.39784638
H      -0.96570018      0.06665096      1.91877794
H       1.48583363      1.11921489     -1.53935597
H       0.57509032      2.36282769     -0.67072877
H       2.00676058      1.62510057      0.06074108
H       0.30942776     -1.70665557      0.80840041
