14
b3lypvtz=-227030.18925221
C      -2.00882827     -0.66555968     -0.62100761
C      -1.12185157     -0.10686306      0.49016344
C      -0.57148740      1.30507794      0.20023543
O       0.74706933      1.09684238     -0.32855986
C       1.17249768     -0.16602263     -0.01084664
O       2.26736477     -0.58198718     -0.26721460
N       0.14378947     -0.81154132      0.63531238
H      -2.93951516     -0.09885663     -0.68868232
H      -2.26782188     -1.70768257     -0.42572395
H      -1.50237022     -0.61433639     -1.58624484
H      -1.66938076     -0.11067539      1.43436281
H      -0.49313287      1.90225398      1.11041535
H      -1.15756774      1.84682641     -0.53958845
H       0.19602963     -1.81388986      0.70377084
