16
b3lypvtz=-202065.45585067
N      -2.52625290     -0.46327462     -0.07073347
C      -1.28852205     -0.16808736     -0.00589183
C      -0.05295691     -1.05925996     -0.01663920
C       1.11165795     -0.12016199      0.37283780
N       2.44323278     -0.39959336     -0.14437991
C       0.60125848      1.25632432     -0.09032680
N      -0.83333661      1.12617727      0.07039452
H      -2.65502632     -1.47041154     -0.09045208
H       0.09472829     -1.43908319     -1.03261171
H      -0.16465873     -1.91792402      0.64483943
H       1.18728541     -0.09783708      1.46198859
H       2.41905788     -0.53994719     -1.14857330
H       2.82283241     -1.24425960      0.26501538
H       0.89735718      1.43309088     -1.13418338
H       1.00859151      2.06789733      0.51233094
H      -1.47471138      1.87964310     -0.11292397
