15
b3lypvtz=-191195.76115407
C       2.26388051     -1.02710313     -0.00000647
C       1.77574466      0.21073699     -0.00000888
C       0.34090507      0.54665481      0.00001640
N      -0.12062338      1.73256429      0.00002825
N      -0.52952324     -0.59065051      0.00003392
C      -1.80163580     -0.43240536     -0.73566634
C      -1.80167145     -0.43236407      0.73566081
H       1.59994718     -1.87976615      0.00002100
H       3.33072990     -1.20726137     -0.00002905
H       2.44828070      1.06249421     -0.00002965
H       0.62977102      2.42004618      0.00001663
H      -1.95775004      0.52086284     -1.22347681
H      -2.10804002     -1.31318514     -1.28481133
H      -1.95781064      0.52093013      1.22341298
H      -2.10809947     -1.31311570      1.28483754
