16
b3lypvtz=-181111.1600762964
C       0.16868964     -1.70384213     -0.33021618
C       0.08163122     -0.19073267     -0.05975671
C      -1.35108751      0.27037445     -0.02632029
C      -1.96363592      0.79597201      1.02585382
C       0.86717286      0.57322960     -1.11297218
C       2.23184594      1.01528092     -0.92127736
N       1.43649026      1.96662250     -0.76647347
H      -0.37385486     -2.26486408      0.43103754
H      -0.26615420     -1.95327917     -1.30081771
H       1.20682030     -2.04105898     -0.33319035
H       0.53353481      0.01883664      0.91338669
H      -1.90410485      0.14885147     -0.95530733
H      -1.44944293      0.94037585      1.96894233
H      -2.99923144      1.10683453      0.98318439
H       0.48369539      0.48376180     -2.12683786
H       3.29763131      0.83363724     -0.87378090
