12
b3lypvtz=-228832.65949437
C       0.52800933      1.63186390     -0.46994036
C       0.26287693      0.36567731     -0.14314969
C       1.33729675     -0.65976678     -0.01252991
N       2.51469360     -0.47723801      0.42008044
C      -1.14222892     -0.07858717      0.05143204
N      -2.12349583      0.49498964      0.57013563
F      -1.32876772     -1.33081019     -0.42170116
H       1.54230912      1.96085030     -0.65232255
H      -0.25732644      2.36400386     -0.59864517
H       1.06119546     -1.66741156     -0.31768296
H       2.65864507      0.49098744      0.71665853
H      -1.87139935      1.41258825      0.92502216
