16
b3lypvtz=-181140.70284582
C       1.52247206      0.55371229      0.20243075
C       0.14118686      1.19365066      0.40201936
C      -0.92317184      0.49247200     -0.43413582
C      -1.77845722     -0.58823677      0.19015490
C      -0.67875237     -0.95943759     -0.76231036
N       0.48215182     -1.65006549     -0.26893851
C       1.45507873     -0.95473577      0.15380984
H       2.21466087      0.86072430      0.98849755
H       1.96545515      0.89690897     -0.74006897
H      -0.12107933      1.14769804      1.46127742
H       0.18210611      2.25201872      0.14208303
H      -1.39543763      1.09403350     -1.20005288
H      -2.80273940     -0.69753899     -0.13927530
H      -1.61159782     -0.80792843      1.23723447
H      -0.98570750     -1.33226383     -1.73123981
H       2.33383152     -1.50101161      0.49851432
