9
b3lypvtz=-235544.32212495
O       2.25732616      1.17681531     -0.76809493
C       1.78548358      0.13044852     -0.40641177
C       0.33761619     -0.12059127     -0.29478421
N      -0.21964415     -1.22483527      0.08724454
N      -1.58939982     -1.01015724      0.04058239
C      -1.73759919      0.20620120     -0.36575286
O      -0.57201381      0.84155914     -0.60127732
H       2.39238411     -0.74501394     -0.12243249
H      -2.65415306      0.74537355     -0.53017337
