10
b3lypvtz=-223060.69567694524
C      -1.32785296     -0.13315941      0.42013981
N      -1.78402120      0.77310675     -0.33429530
C       0.13811144     -0.49008617      0.43256994
O       0.53538132     -1.37195113      1.17799995
C       0.96568497      0.27445068     -0.47339065
N       2.24650613      0.00739365     -0.50535833
N       3.33542948     -0.26193596     -0.49263927
H      -1.91350091     -0.73652147      1.11926183
H      -2.79052170      0.88974185     -0.22158759
H       0.59478345      1.04896121     -1.12270040
