15
b3lypvtz=-237830.93060994
C      -2.55770838     -0.63323894      0.50568825
O      -2.03586304      0.24693889     -0.48450689
C      -0.79337302      0.76311396     -0.19400785
O       0.18350907     -0.27960187     -0.30792358
C       1.47372463      0.01808115      0.02365370
N       1.96975446      1.12505351      0.40470389
N       2.25341569     -1.10009038     -0.15388506
H      -2.57168911     -0.14957268      1.48864195
H      -1.97563188     -1.55457213      0.56657669
H      -3.57640480     -0.86821235      0.20708075
H      -0.74905306      1.17384644      0.82393077
H      -0.58639126      1.53988636     -0.93160678
H       1.30380644      1.88597901      0.41819235
H       1.78668850     -1.98812495     -0.08379593
H       3.16017675     -1.04217001      0.27712273
