14
b3lypvtz=-201256.68716535
C      -1.40945666     -0.72600755      0.46579533
C      -0.90183707     -0.21955355     -0.81408967
N      -0.26121671     -1.45100264     -0.15076829
C       0.89466250     -0.61724699      0.14497584
N       1.95250829     -0.84527564      0.77536236
C       0.38047465      0.59324475     -0.64942598
N       0.29877406      1.93776482     -0.12705982
H      -2.32121349     -1.30775940      0.45035832
H      -1.23901009     -0.18527101      1.38989047
H      -1.45717976     -0.32402127     -1.73506737
H       1.96225998     -1.79711110      1.14667924
H       0.91644107      0.62651316     -1.60011810
H      -0.02812038      1.94208326      0.83132263
H       1.21291361      2.37364319     -0.12785496
