20
b3lypvtz=-182670.9739423
C      -2.59901679      0.40456454      1.08395529
C      -2.14529543     -0.56503158     -0.00984533
C      -0.62525040     -0.73326444     -0.11928350
C       0.10958854      0.51737265     -0.61978079
N       1.54785110      0.36044026     -0.77429137
C       2.38371536      0.41605998      0.32414586
C       3.58669440     -0.15211822      0.45432173
H      -3.68770862      0.44158570      1.14671227
H      -2.22189608      0.09576813      2.06162268
H      -2.25020682      1.42222513      0.90168698
H      -2.54220754     -0.23672759     -0.97618601
H      -2.59090796     -1.54489413      0.17942025
H      -0.21249562     -1.02459629      0.85141709
H      -0.40496692     -1.55703700     -0.80554465
H      -0.05295982      1.35318333      0.06335066
H      -0.30695627      0.82139732     -1.58437989
H       1.82440528     -0.30479909     -1.48131120
H       1.99357526      1.03946552      1.12301553
H       4.18257665      0.03174945      1.33460594
H       4.01146167     -0.78534370     -0.31470570
