17
b3lypvtz=-191985.50897302
C       2.70869986     -0.45937619     -0.18163003
N       1.33984932     -0.02469120     -0.42823111
C       0.59858473      0.29006218      0.77830522
C      -0.91034812      0.46666631      0.51454087
C      -1.22518358      1.60359666     -0.47207046
C      -1.51973520     -0.79102667      0.07038900
N      -2.02341397     -1.77062142     -0.26199308
H       3.21050315     -0.63056749     -1.13371612
H       2.69721915     -1.40609730      0.36116172
H       3.31063755      0.25518443      0.40095429
H       1.34275840      0.76753646     -1.05722702
H       0.73484966     -0.53490155      1.48010608
H       0.95458951      1.20097151      1.28837511
H      -1.37272639      0.71044791      1.47585030
H      -0.77578915      2.53354010     -0.12036949
H      -0.84111948      1.37878219     -1.46639283
H      -2.30021746      1.75440509     -0.55914846
