11
b3lypvtz=-233860.12003033
C       1.38509202     -0.91293720     -0.10969679
N       2.63480833     -0.74149000     -0.07309794
C       0.38342852      0.20317073     -0.06909637
N       0.73269928      1.40752158      0.00450216
O      -0.89266696     -0.33063280     -0.12509094
N      -1.95713102      0.67704587     -0.09035259
N      -3.04681553      0.16648724     -0.14171466
H       0.97617808     -1.91980100     -0.17469057
H       2.83786037      0.26182522     -0.01281380
H      -0.04997222      2.05438374      0.02385584
H      -3.00348087     -0.86557339     -0.19930131
