13
b3lypvtz=-239673.36036674
C       2.61452284     -0.09235922     -0.02947441
N       1.41358533      0.34950438     -0.08999040
C       0.33675168     -0.36762739      0.26912281
C      -0.93941117      0.08682074      0.16154574
N      -1.24274230      1.28220507     -0.47032705
N      -2.02442089     -0.60563074      0.66428786
F       0.49842598     -1.65001217      0.76526439
H       3.42116353      0.56122570     -0.33998150
H       2.86459308     -1.09301126      0.31743506
H      -1.89306010      1.85636070      0.04980911
H      -0.40729068      1.78968596     -0.72725235
H      -1.80320262     -1.53420614      0.98807923
H      -2.83891469     -0.58295563      0.06787952
