17
b3lypvtz=-191972.24693052
C      -2.92215600     -0.90398793     -0.03608745
C      -2.28877733      0.39020387     -0.46862252
N      -1.16457620      0.89406881     -0.18066343
C      -0.21633207      0.21704202      0.68993220
C       1.18012044      0.41327587      0.16301750
N       2.01516747     -0.53007750      0.12873295
C       3.34844702     -0.25242729     -0.36854665
H      -3.82614433     -0.68825682      0.54044371
H      -2.27437852     -1.53455785      0.56661758
H      -3.24235973     -1.46766026     -0.91567452
H      -2.91437148      0.99175977     -1.13284488
H      -0.27408042      0.70510451      1.67180983
H      -0.38390325     -0.85147607      0.84140885
H       1.41371371      1.42895751     -0.18431189
H       3.49178237      0.78806632     -0.68900756
H       3.56157990     -0.91533521     -1.20958506
H       4.07737642     -0.48573075      0.41041334
