13
b3lypvtz=-242042.92438053
C      -1.05796208      1.47315937     -0.86122885
C      -0.69167030      1.25077341      0.57054653
C       0.00647193      0.23349606      1.07858806
C       0.57252393     -0.89229967      0.36132713
N       1.22104325     -1.80077490      0.97886482
O       1.67087271     -2.77962074      0.09055830
F       0.23363175      0.21329476      2.41071948
H      -0.65963928      2.42770827     -1.21514147
H      -0.69179066      0.69354480     -1.52576469
H      -2.14393628      1.52612160     -0.97526808
H      -1.02662375      1.99438110      1.28458860
H       0.43212499     -0.94519567     -0.71413932
H       2.13495380     -3.39458838      0.66818215
