14
b3lypvtz=-203691.42309573
C      -0.77127979      1.24101809      0.62081105
C      -0.31724502     -0.05677517      0.01405712
C      -1.37430117     -1.10532019     -0.03964184
N      -1.23975957     -2.36542016     -0.00033281
C       0.90690733     -0.31106735     -0.48206656
C       2.05184311      0.60331061     -0.49460776
O       3.13124901      0.29645947     -0.95289463
H      -0.00039817      2.00460587      0.64524267
H      -1.12365969      1.07678584      1.64247171
H      -1.62253946      1.63414776      0.05867461
H      -2.39568771     -0.72032824     -0.09428589
H      -0.25632171     -2.63326286      0.08449719
H       1.11085016     -1.27290287     -0.94020282
H       1.90024268      1.60844920     -0.06162205
