15
b3lypvtz=-216888.6635835
C      -1.31878810     -0.12281956     -0.83758930
C      -2.05930427     -0.17043670      0.50842705
O      -0.85195179      0.18329315      1.22923827
C      -0.12696195      0.40045979     -0.00898265
C       1.15638965     -0.37475683     -0.04514573
C       2.42879563      0.24005279      0.33581272
O       2.10111342      0.03191850     -1.04203192
H      -1.71436924      0.55751200     -1.58730175
H      -1.14521686     -1.09668920     -1.29195901
H      -2.44795456     -1.14032341      0.82356126
H      -2.83631738      0.58749143      0.63674465
H       0.08926260      1.46230440     -0.16509709
H       1.05124165     -1.45144700      0.06713575
H       3.22903042     -0.38327108      0.72046539
H       2.44503079      1.27671172      0.65672236
