15
b3lypvtz=-216898.38888847
C      -1.43473537      0.69116376     -0.16451184
C      -1.33604566     -0.71473381      0.38937499
O      -0.26981565     -1.43986034     -0.22190091
C       0.90019039     -0.70599878     -0.46079604
C       1.70349689     -0.04409621      0.62941503
C       0.90967040      0.79026775     -0.35396821
O      -0.24678104      1.42268137      0.13176353
H      -2.25405368      1.23388840      0.30626312
H      -1.60681764      0.65930745     -1.24723171
H      -2.24324884     -1.28254095      0.18100888
H      -1.19559116     -0.67165430      1.47611047
H       1.44925338     -1.15937137     -1.27480657
H       1.31314968     -0.06309244      1.63746726
H       2.78224775     -0.06765034      0.55398554
H       1.43306554      1.37884382     -1.09966055
