13
b3lypvtz=-239648.88921036
C      -0.21467465      1.81146064     -0.20410715
N      -0.06745579      0.36183922     -0.04608616
N       1.18823097     -0.02588089      0.31988498
C       1.58429264     -1.23678863      0.29361298
C      -1.15276921     -0.47544981     -0.22653867
N      -1.42604700     -1.62857150      0.18252501
F      -2.06995977      0.14780469     -0.99770488
H      -1.18735045      2.13645429      0.15650436
H       0.56993693      2.27371219      0.38710987
H      -0.10521796      2.11217669     -1.24696717
H       2.61612547     -1.39662155      0.57861545
H       1.00214500     -2.09383919     -0.02941700
H      -0.73745618     -1.98629615      0.83236837
