16
b3lypvtz=-202063.66124887
C       2.35711921      0.95422466     -0.00031189
C       1.27370184     -0.10758322      0.00001693
N       1.45835634     -1.36248832      0.00035099
N       0.00000007      0.46759486     -0.00010876
C      -1.27370179     -0.10758303     -0.00016498
C      -2.35711898      0.95422500      0.00030121
N      -1.45835650     -1.36248808     -0.00054664
H       3.34075175      0.49121686      0.00015717
H       2.27672598      1.59451179      0.88170876
H       2.27709133      1.59353810     -0.88307053
H       2.45576608     -1.56087406      0.00038771
H       0.00000015      1.47222126     -0.00008898
H      -3.34075162      0.49121736     -0.00010603
H      -2.27701598      1.59349984      0.88308093
H      -2.27680060      1.59455067     -0.88169834
H      -2.45576628     -1.56087368     -0.00050153
