18
b3lypvtz=-205220.02550019
C      -2.19059728     -0.77923947     -0.01959244
C      -1.08403411     -0.06853820     -0.80397675
C       0.17901924      0.41008865     -0.02055328
C      -0.19614189      1.38075075      1.10897488
N       1.14945433      1.04933649     -0.90689918
C       0.83513484     -0.82239479      0.58583655
O       1.80112145     -1.37448013      0.12448833
H      -1.84713427     -1.71502822      0.42353692
H      -2.59069009     -0.15609452      0.78060002
H      -3.01941391     -1.02416349     -0.68543308
H      -1.50219500      0.82446728     -1.27930570
H      -0.73575862     -0.71569923     -1.61287217
H      -0.71479717      2.24725453      0.69506425
H       0.70605207      1.73743278      1.60453418
H      -0.84804570      0.91975903      1.85234160
H       1.74248885      0.34387870     -1.32998966
H       0.68461362      1.56027843     -1.64654508
H       0.34788664     -1.21305761      1.50070958
