14
b3lypvtz=-255305.64067517
O      -1.46341218      1.39638120     -2.22139164
C      -1.65396695      0.47114120     -1.47837317
C      -0.72572293      0.08823785     -0.32989444
O      -1.11575336     -1.16494945      0.22478472
C       0.72598106     -0.00240933     -0.79570711
C       1.69816395     -0.16748951      0.35188938
F       1.62414800      0.94435134      1.20087112
H      -2.54430993     -0.18573392     -1.57367138
H      -0.79719590      0.88684723      0.41744964
H      -1.73214613     -1.02102401      0.94748651
H       0.83124357     -0.85917720     -1.46693294
H       0.96392587      0.89652550     -1.36481896
H       1.46373985     -1.04931974      0.94858756
H       2.72530510     -0.23338117     -0.01017928
