16
b3lypvtz=-232751.60747645
C      -1.80485179      0.56388398     -0.58241590
C      -0.62629962     -0.05754824      0.12498254
O      -0.76460375     -0.09380747      1.53045979
C       0.15750815     -1.16272363     -0.52141742
C       0.76877145      0.21889881     -0.36370543
C       1.89592198      0.42404151      0.59881569
F       3.08899451     -0.07453314      0.05436917
H      -1.63500481      0.62243655     -1.65799176
H      -1.98654474      1.57097001     -0.20373123
H      -2.70931782     -0.02879820     -0.41916152
H      -1.42548756     -0.75895157      1.75100935
H       0.54567029     -1.93598288      0.12789611
H      -0.11716107     -1.49375867     -1.51376139
H       0.83780992      0.81620693     -1.26497667
H       1.71562856     -0.09477771      1.53856653
H       2.05906631      1.48454374      0.80116214
