20
b3lypvtz=-182662.23346951
C      -2.73563373      0.85695911      0.29686059
C      -2.14360877     -0.50449826     -0.07023345
C      -0.80191693     -0.42980244     -0.81171485
C       0.33882715      0.13250733      0.00908818
C       1.08342858     -0.74069798      0.99997551
C       1.75630560     -0.25072515     -0.26606582
N       2.79048963      0.75747976     -0.28403553
H      -3.70998682      0.74546630      0.77548264
H      -2.87239955      1.47849198     -0.59147280
H      -2.09415416      1.40509308      0.98877759
H      -2.85734282     -1.04484280     -0.69823059
H      -2.01815766     -1.10448084      0.83594258
H      -0.92427104      0.17168485     -1.71925265
H      -0.52822916     -1.43428102     -1.14760777
H       0.20715546      1.16322469      0.32207962
H       0.80355940     -1.78489608      1.06871263
H       1.39488620     -0.29575712      1.93620477
H       1.89961662     -0.99583987     -1.04048354
H       3.65573494      0.39179839      0.09791096
H       2.52924305      1.55320908      0.28536592
