11
b3lypvtz=-213007.41165174
C       0.92115028      0.01980997      0.09239177
C       0.25452760      1.04869474     -0.43642477
N       0.94560791      2.17960569     -0.92854071
C       0.26419761      3.11759882     -1.41934858
O      -1.10945426      3.15100227     -1.52540827
C      -1.73089660      2.02639130     -1.02706679
N      -1.15691525      1.02967388     -0.51510252
H       0.38426877     -0.83819497      0.46503160
H       1.99800882      0.04415890      0.14786737
H       0.70482661      4.02176333     -1.82013892
H      -2.80612147      2.10139608     -1.12986017
