15
b3lypvtz=-214480.69956671
C       3.00416836      0.15436167     -0.24764695
N       1.93665335      0.04803876      0.43665081
N       0.83202624     -0.48981088     -0.14027855
C      -0.42670078     -0.14091825      0.46158668
C      -1.23077057      1.09247776     -0.02404247
O      -2.40126712      0.27220665     -0.24671551
C      -1.65178865     -0.94065258     -0.01209274
H       3.07272747     -0.12948620     -1.30106446
H       3.88776391      0.53431503      0.24619253
H       0.83360172     -0.50845256     -1.15841688
H      -0.28193368     -0.15264812      1.53828601
H      -0.85447297      1.53021869     -0.95534793
H      -1.41818865      1.88570314      0.70171692
H      -2.13441917     -1.59213862      0.71804950
H      -1.48145445     -1.50188548     -0.93774597
