12
b3lypvtz=-226230.89184976
N      -3.16143796      0.58707686     -0.00082994
C      -2.32435744     -0.61360482      0.00060608
C      -0.87613136     -0.39125412      0.00040110
C       0.30781938     -0.17463905      0.00014573
C       1.70752532      0.16298978     -0.00025392
O       2.14161198      1.28779858     -0.00083745
O       2.49273433     -0.93814766      0.00008687
H      -2.95359842      1.15755139      0.81051248
H      -2.95350500      1.15567444     -0.81346540
H      -2.58424659     -1.21874134      0.87287099
H      -2.58418067     -1.22077524     -0.87026350
H       3.40908043     -0.62151582     -0.00023205
