19
b3lypvtz=-192746.7034229
C      -2.37969002      0.14891156      0.01648213
C      -0.97562746     -0.40795971      0.09138290
N      -0.68198174     -1.62007814     -0.15864288
C       0.11920501      0.56493163      0.50682282
C       0.23938071      1.74599061     -0.47311096
C       1.47453138     -0.11681607      0.74600860
N       2.08471680     -0.59049493     -0.49819936
H      -3.11038876     -0.65176205     -0.09594719
H      -2.48210487      0.82590579     -0.83402226
H      -2.62386334      0.72522395      0.91163562
H      -1.51325389     -2.15698967     -0.40664679
H      -0.20153823      0.97342267      1.47414175
H      -0.69731394      2.29475120     -0.57077919
H       0.99649013      2.44619479     -0.11727446
H       0.55181446      1.39542821     -1.45514652
H       1.33380832     -0.90991799      1.49099037
H       2.14377037      0.62616479      1.18744422
H       1.57995221     -1.41391486     -0.80574084
H       3.04496786     -0.86494576     -0.33265295
