14
b3lypvtz=-203639.40774357
C      -0.74808340      1.01857017      0.07551093
C      -0.37896179     -0.03309326     -1.00579444
C       0.66956147     -0.64096468     -0.04449838
C      -0.63956658     -0.35966831      0.77292796
N      -1.36917852     -1.01689646     -0.38707781
C       1.94672066      0.05805750      0.29723789
O       2.33729638      1.09167251     -0.18718536
H      -1.75964754      1.41988325      0.00678369
H      -0.02012538      1.79202289      0.31089504
H      -0.29021204      0.09718671     -2.08150342
H       0.84030537     -1.71100457     -0.17641502
H      -0.83931461     -0.63020086      1.80805763
H      -2.30880899     -0.61777179     -0.44903439
H       2.56001499     -0.46779309      1.06009569
