14
b3lypvtz=-250276.50362215
O       1.98433167      1.22550972     -1.46048619
N       1.71954637     -0.07633014     -1.93156205
C       0.97512246     -0.73654374     -1.14043559
C       0.39441288     -0.27343687      0.16155902
C      -1.04920258      0.21443736      0.01739604
O      -1.55888002      0.74809940      1.21654077
O      -1.81309783     -0.88818511     -0.42627173
H       2.56735278      1.57380252     -2.14172004
H       0.74042170     -1.73324105     -1.49501245
H       0.39182439     -1.10791350      0.86831712
H       0.98749042      0.53870084      0.57377828
H      -1.09973243      1.04097580     -0.69524104
H      -1.52657078      0.05684821      1.88907430
H      -2.71291906     -0.58282343     -0.58583644
