15
b3lypvtz=-214545.9993258
C      -2.26407194     -0.48908212     -0.26367955
C      -1.44159005      0.47459843      0.15740104
N      -0.04872815      0.56848922      0.08301173
C       0.50579222      1.92109629      0.02135739
C       0.86457368     -0.48518532     -0.01695459
N       0.36494864     -1.75097204      0.17628714
O       2.04253221     -0.28781069     -0.25867985
H      -3.32383607     -0.37269521     -0.09330744
H      -1.93588590     -1.37157396     -0.79011872
H      -1.87532728      1.35532027      0.61890490
H      -0.01404129      2.55523793      0.74039667
H       0.39107049      2.35395477     -0.97497687
H       1.56210523      1.87975933      0.26168207
H       1.08496723     -2.43845401      0.32160778
H      -0.48927603     -1.87194289      0.69494429
