13
b3lypvtz=-293686.0505245
O       1.75604217     -1.43265623     -0.54053442
C       1.16706968     -0.40895941      0.23838249
C      -0.30400653     -0.23109779     -0.11315496
O      -0.34925709      0.16476483     -1.47459621
C      -1.00176160      0.77941955      0.78272618
F      -0.39967477      2.00033701      0.73121803
F      -2.29218548      0.94843860      0.33825082
H       1.60765655     -1.20530755     -1.46551798
H       1.68139097      0.54786342      0.10301232
H       1.26929593     -0.70945789      1.28231327
H      -0.81798352     -1.19018071      0.03064042
H      -1.26848781      0.27287442     -1.74022191
H      -1.04809850      0.46406175      1.82768195
