15
b3lypvtz=-219524.0719859
C      -1.16174466      1.99278268      0.13187493
C      -1.57812765      0.57344041     -0.10699408
C      -0.83680789     -0.53957482      0.02386412
N      -1.40808773     -1.82944218     -0.01180658
C       0.60236911     -0.57965501      0.33012083
C       1.51843265      0.13855049     -0.30123151
F       2.82439382      0.05466334      0.01987268
H      -1.11140183      2.56866225     -0.79816249
H      -0.18727431      2.05996063      0.61342642
H      -1.88777484      2.50351878      0.77060081
H      -2.62537881      0.43030256     -0.36116770
H      -2.37514550     -1.83433046     -0.30277643
H      -0.87185355     -2.49857826     -0.54641485
H       0.92820260     -1.28348624      1.08874840
H       1.34067358      0.83283483     -1.11019253
