16
b3lypvtz=-204449.08561482
C      -2.37345989     -0.44347026      0.32654645
N      -1.14347057     -0.00476794     -0.29943144
C      -0.59555173      1.22687950      0.02720777
C       0.74175347      1.26485469     -0.03430293
C       1.26519793     -0.09807252     -0.39658490
O       2.28873313     -0.59716843      0.46768654
C      -0.02882461     -0.96253421     -0.37436237
H      -3.10119818      0.36799115      0.31183270
H      -2.23035985     -0.76247931      1.37022398
H      -2.79486002     -1.28214164     -0.22904466
H      -1.26628694      2.04470916      0.25361886
H       1.36064396      2.14192558      0.06313935
H       1.72912348     -0.11459450     -1.38536399
H       2.03563611     -0.37020340      1.36978211
H      -0.00641685     -1.59580961      0.52202511
H      -0.12821742     -1.61248027     -1.24379456
