12
b3lypvtz=-228833.80083998
C      -2.81801845     -0.68259341     -0.00005945
C      -1.77264626      0.14349327      0.00005101
N      -0.47334211     -0.36100383      0.00009982
C       0.54037393      0.37968279      0.00014400
F       0.47598518      1.73858739     -0.00005930
C       1.93911536     -0.10851027     -0.00004198
N       2.28005279     -1.32680521     -0.00003763
H      -3.82734281     -0.29735801     -0.00011778
H      -2.67679756     -1.75466604     -0.00008122
H      -1.90840787      1.22015475      0.00011227
H       2.70183971      0.66810574     -0.00010052
H       1.44424809     -1.91905318      0.00008780
