21
b3lypvtz=-172600.50281538
C      -2.91750395     -0.49883903     -0.08183077
C      -1.80672008      0.49741473     -0.41684951
C      -0.55275865      0.31048241      0.42290246
C       0.69983206      1.17007691      0.10966053
C       1.58751648     -0.06957889      0.39842893
C       2.80695987     -0.32730158     -0.46795781
C       0.32584492     -0.95360434      0.21176500
H      -2.58460750     -1.52796848     -0.23198229
H      -3.79688292     -0.34142560     -0.70856396
H      -3.23135908     -0.40291805      0.96015240
H      -2.17878838      1.51850781     -0.28171429
H      -1.54169522      0.40804587     -1.47567268
H      -0.80755077      0.40518347      1.48264726
H       0.86620834      2.06919244      0.70378778
H       0.73557376      1.44115758     -0.94891095
H       1.87851324     -0.07030035      1.45192845
H       3.26190716     -1.29370507     -0.23686654
H       2.54014733     -0.33067602     -1.52768136
H       3.57005192      0.44078741     -0.31991161
H       0.18970483     -1.79722523      0.88864083
H       0.24974066     -1.31691900     -0.81692385
