13
b3lypvtz=-213775.50632758
N       2.73495671     -1.00473610     -0.12929778
C       1.99703119     -0.13881854      0.04113830
C       1.05242553      0.95016392      0.24413528
C      -0.44037448      0.61114454      0.02566522
O      -1.21019564      1.51487437     -0.17649784
C      -0.87642106     -0.84292028      0.13188829
N      -2.29438468     -1.09329371     -0.00342223
H       1.29931694      1.78680660     -0.40971120
H       1.14598047      1.31496430      1.27140054
H      -0.32215457     -1.41828769     -0.61566366
H      -0.51608734     -1.22556525      1.09420818
H      -2.60885765     -0.83096827     -0.93019494
H      -2.81597343     -0.50839590      0.63947985
