18
b3lypvtz=-205205.79834184
C      -1.92261073      1.56744191      0.02794866
C      -1.35008293      0.45215248     -0.40593375
C      -0.55127959     -0.49689512      0.44515792
C       0.88996950     -0.65846218     -0.06216419
C       1.73701233      0.60502160      0.04043025
O       3.09736481      0.37844895     -0.32291451
N      -1.20628539     -1.81400717      0.39452880
H      -1.83919058      1.88311284      1.06170509
H      -2.49279998      2.20820848     -0.63189000
H      -1.46101033      0.15120488     -1.44421182
H      -0.50811496     -0.08460183      1.46449972
H       0.85735165     -1.00566557     -1.09991575
H       1.38230301     -1.44474019      0.51752476
H       1.30221484      1.41089212     -0.55980484
H       1.76915236      0.95436401      1.07405668
H       3.12649260      0.13528387     -1.25325755
H      -2.14000896     -1.75557008      0.78410840
H      -0.69047765     -2.48618903      0.95146063
