18
b3lypvtz=-181891.44854133
C       2.39720585      0.55222319     -0.51205757
C       1.74869525     -0.48229077      0.00892101
C       0.32042463     -0.82518304     -0.23034773
N      -0.59201636     -1.10458894      0.90373600
C      -0.84042487      0.07046561      0.03741910
C      -0.64868131      1.44792155      0.63107233
C      -2.06846875     -0.06467700     -0.83652985
H       3.45173081      0.70797665     -0.32431471
H       1.90195185      1.27704852     -1.14634831
H       2.29752277     -1.18970265      0.62690439
H       0.18922400     -1.54787018     -1.03296402
H      -0.14791741     -0.79299836      1.76416558
H      -0.57327914      2.20746358     -0.15075418
H      -1.50918131      1.70497497      1.25418914
H       0.24914086      1.50875569      1.24356424
H      -2.18291955     -1.09026476     -1.18502449
H      -2.96783597      0.20205212     -0.27638679
H      -2.00468137      0.59402982     -1.70592313
