16
b3lypvtz=-204444.01601598
C      -0.74990340      1.41460940      0.18706741
C      -0.41883160     -0.00131340     -0.20339184
C      -0.66544100     -1.15576649      0.71302747
C      -1.49663435     -0.98172371     -0.54135496
O       0.71231714     -0.11236448     -1.07617603
C       1.94549010      0.06322906     -0.56814475
N       2.19703046      0.32919103      0.63989478
H      -1.67466933      1.43453434      0.76438332
H       0.04507625      1.84470312      0.79387911
H      -0.89219160      2.03047031     -0.70328813
H      -1.11476528     -0.94868560      1.67437732
H       0.06700395     -1.94927898      0.72046385
H      -1.30428567     -1.65823190     -1.36191172
H      -2.52359421     -0.65612314     -0.44836953
H       2.67393678     -0.06404201     -1.37076515
H       3.19946175      0.41079245      0.78030884
