12
b3lypvtz=-252102.73419678
C      -0.77836014     -0.28799123     -1.23676030
C      -0.43802861      0.27793463      0.10570994
C      -1.27020803      1.00223065      0.85832436
F      -2.51601127      1.29040451      0.46089936
N       0.81939120      0.09309836      0.70997460
N       1.60785526     -0.57106105      0.03996624
O       2.81197788     -0.68592340      0.73680467
H      -0.09493224      0.09145801     -1.99803395
H      -0.67727430     -1.37445265     -1.23246460
H      -1.79703208     -0.02755707     -1.51286058
H      -1.01577127      1.40673051      1.82659724
H       3.34839362     -1.21487127      0.13365833
