18
b3lypvtz=-181835.94200884
C       1.37930023     -0.16814404      0.05767408
C       0.58109542      0.39359718      1.21934499
N       1.01068647      1.79614691      1.70609762
C      -0.03897468      2.32971260      0.77380283
C      -1.39255953      3.11054896      0.66245678
C      -1.92789671      1.73028098      0.05402591
C      -0.81332129      1.08773849      0.95531850
H       1.39052473      0.50214517     -0.80299560
H       0.95718562     -1.12245663     -0.26433980
H       2.41426650     -0.35122502      0.35605217
H       0.56254949     -0.32234148      2.04147977
H       1.95968301      2.04063452      1.43458967
H       0.37312799      2.36307799     -0.24214035
H      -1.43028287      3.99700364      0.02927025
H      -1.86476352      3.31166640      1.62274832
H      -1.73610111      1.67251966     -1.01627185
H      -2.96200101      1.45983693      0.26051296
H      -1.23901875      1.13955776      1.96027373
