10
b3lypvtz=-251380.76011185
C       2.29834645     -0.21416962     -0.08174325
N       1.28487328     -0.86235397      0.32718720
C       0.01427777     -0.36187182      0.08151135
F      -0.04069419      0.86274977     -0.51161392
N      -1.02739321     -0.97429095      0.39486367
C      -2.33121739     -0.54277884      0.14328648
O      -2.90707743     -0.68328327     -0.90034735
H       2.24250948      0.72788143     -0.62620801
H       3.28113267     -0.62784799      0.12302819
H      -2.81475741     -0.14023474      1.05013565
