12
b3lypvtz=-223814.18552786
N      -1.95474731     -0.20884340      0.56561247
C      -1.04178212      0.14130393     -0.52169964
C       0.40978881      0.19062268     -0.15231090
C       1.48874477     -0.54653153     -0.52998366
N       2.56954925     -0.06953726      0.17177107
N       2.25113619      0.86619534      0.92428842
O       0.80791807      1.08712794      0.74529624
H      -1.88940256      0.46953179      1.31516771
H      -1.71167357     -1.11024979      0.95962769
H      -1.16444623     -0.57840153     -1.33134761
H      -1.33794767      1.11539512     -0.91618377
H       1.57286236     -1.35681329     -1.23023803
