17
b3lypvtz=-191970.68712394
C       3.06967293      0.90106825      0.05577157
N       2.34706834      0.02339462     -0.48854918
C       1.40442699     -0.70190122      0.34963250
C       0.02400454     -0.64211557     -0.24794130
N      -0.99240605     -0.39154955      0.45420765
C      -2.29635663     -0.37445236     -0.19026605
C      -2.98650073      0.97027793      0.02583893
H       3.78265100      1.45506853     -0.55152515
H       3.02511057      1.14573170      1.12431063
H       1.72242763     -1.75166187      0.35403703
H       1.36888918     -0.34809893      1.38630178
H      -0.03115067     -0.83634557     -1.32786602
H      -2.22546612     -0.60071707     -1.26394456
H      -2.89710087     -1.16292139      0.27165137
H      -3.99272678      0.95478102     -0.39617642
H      -2.42753621      1.77557090     -0.45326159
H      -3.05922910      1.19614457      1.08992383
