13
b3lypvtz=-190439.81776621
C       2.20976102     -0.41441398     -0.04532734
C       0.75277757     -0.48956425      0.04442058
C      -0.44380226     -0.55757009      0.12020686
C      -1.91038463     -0.58009556      0.20375773
N      -2.57258981      0.71553139      0.02799900
C       2.69762658      0.93994615     -0.32949667
N       3.09306541      1.99604082     -0.55168614
H       2.66893571     -0.75093625      0.88895779
H       2.58017275     -1.07981244     -0.83082859
H      -2.20756909     -0.98865690      1.17234979
H      -2.30174513     -1.26984831     -0.54755008
H      -2.23533967      1.37249242      0.72243912
H      -2.33090848      1.10688697     -0.87524204
