17
b3lypvtz=-191971.62810577
C      -2.19527057     -0.02828812     -0.14548155
C      -0.70456602     -0.11259797     -0.42568995
C       0.16539011     -1.19953565      0.27950934
C       1.25323203     -0.12935012      0.59320333
C       0.22337285      0.92569631      0.20493157
N       0.19820645      2.15495400      0.47432994
N       2.35109386     -0.15540682     -0.37299324
H      -2.72333993     -0.88246232     -0.57333533
H      -2.39454526     -0.01090942      0.92775693
H      -2.62871729      0.87503618     -0.58044423
H      -0.51982752     -0.13932888     -1.50254105
H       0.49470332     -2.03127760     -0.33954410
H      -0.30797358     -1.58061041      1.18444233
H       1.57064098     -0.07756208      1.64101543
H      -0.65309155      2.59678695      0.12008689
H       2.99032595     -0.91240868     -0.15851244
H       2.88036616      0.70726461     -0.31257035
