12
b3lypvtz=-249518.22702857
C       2.42339952      1.00136320      0.00000497
O       2.22661886     -0.42519551      0.00000942
C       0.97012510     -0.85644970      0.00002990
N      -0.02074552     -0.05728349      0.00002319
O      -1.21742733     -0.83728235      0.00002718
C      -2.34792968     -0.08670696     -0.00000812
O      -2.43801838      1.10034644     -0.00004439
H       1.97265662      1.44469338      0.88692625
H       3.49932320      1.14444762     -0.00002739
H       1.97260183      1.44469508     -0.88688750
H       0.88939273     -1.93893219     -0.00000014
H      -3.18555694     -0.79836951      0.00000463
