16
b3lypvtz=-204435.60799771
C      -3.30769705      0.24701326      0.25094686
C      -2.09309579      0.22741502     -0.27748580
O      -1.23514239     -0.81767338     -0.07768155
C       0.11683626     -0.58527364     -0.10457834
C       0.72827654      0.58083346      0.07713673
C       2.22136686      0.75760184      0.03005803
N       2.94199662     -0.51594423      0.01453709
H      -3.64792271     -0.53615579      0.91339464
H      -3.98608872      1.04990965      0.00614114
H      -1.71862269      1.00114969     -0.93927899
H       0.65942301     -1.50123741     -0.28303183
H       0.15189455      1.47298020      0.28950852
H       2.49138339      1.30021910     -0.88252277
H       2.51332230      1.41595971      0.86241937
H       3.92485836     -0.36336511     -0.17171778
H       2.87821645     -0.96667136      0.92033769
