17
b3lypvtz=-171056.99005791356
C      -2.39252163     -0.92908274      0.28159239
C      -1.25055995      0.04735776      0.25375554
C      -1.19727022      1.10476447      1.05771995
C      -0.14257396     -0.23984039     -0.75460719
C       1.18804409     -0.55339815     -0.10608778
C       2.29452944      0.09582981     -0.32682424
C       3.39894715      0.74802769     -0.55013349
H      -3.13238744     -0.66609371      1.03680168
H      -2.89304358     -0.97083896     -0.69064749
H      -2.03523723     -1.94263435      0.48881457
H      -1.98218173      1.31212008      1.77388134
H      -0.36396213      1.79572913      1.03094191
H      -0.43742546     -1.09044100     -1.37562287
H      -0.01980305      0.60994506     -1.42712992
H       1.20391163     -1.38108690      0.59817926
H       4.08268184      0.45081894     -1.33734294
H       3.67885224      1.60882327      0.04670926
