13
b3lypvtz=-239489.53754693
C       2.56316861     -0.13183679      0.00000438
O       1.21266941     -0.63024726      0.00000311
C       0.25585594      0.29362607     -0.00000210
O       0.43628385      1.48670780     -0.00000325
C      -1.16062107     -0.33640862     -0.00000317
C      -2.28813634      0.65748306     -0.00000463
O      -1.30383204     -1.53079226     -0.00000653
H       2.74264628      0.47372677      0.88700325
H       3.19777025     -1.01212088      0.00001207
H       2.74265198      0.47371509     -0.88700137
H      -2.21422678      1.30918699      0.87228942
H      -2.21421318      1.30919950     -0.87228802
H      -3.23681390      0.12807653     -0.00001517
