17
b3lypvtz=-215284.44069632
C       1.53698813     -1.53824193      0.06228804
C       1.05587017     -0.11797389      0.00252659
N       2.11146215      0.81345045      0.03853824
C      -0.22227747      0.28241779     -0.14814977
N      -0.56960062      1.66508526     -0.15974865
C      -1.37495922     -0.61485174     -0.47247233
O      -2.47263645     -0.46115833      0.44457981
H       0.72773411     -2.26017967      0.12303773
H       2.15400345     -1.77873126     -0.80776558
H       2.16877328     -1.68494229      0.94559158
H       1.84592032      1.78043950     -0.05050394
H       2.79636095      0.67094076      0.76620632
H      -0.10423531      2.18551427      0.57460676
H      -1.56656803      1.77128110     -0.02169300
H      -1.79946158     -0.33704718     -1.44165421
H      -1.06576112     -1.65744853     -0.53957479
H      -2.14061177     -0.65698731      1.32729619
