14
b3lypvtz=-203716.3156561
C       2.02505153     -0.12103042      0.05108946
N       0.58496829      0.00267131      0.02238589
C      -0.14244105      1.18577579      0.23038548
C      -1.45792564      0.98223764      0.14095289
C      -1.68783845     -0.47254549     -0.15671212
C      -0.27347312     -1.05618715     -0.21973676
O       0.05982987     -2.20209664     -0.43469912
H       2.26664283     -1.16269821     -0.14721122
H       2.42635463      0.15799024      1.02774492
H       2.49056273      0.50455358     -0.71356270
H       0.39068089      2.10186448      0.43228834
H      -2.22369697      1.72931340      0.26117245
H      -2.19695248     -0.65444009     -1.10630182
H      -2.26156307     -0.99550843      0.61220431
