15
b3lypvtz=-193577.81238048
C      -1.24961380      0.79449702      0.22660711
C      -0.94220791     -0.60086356     -0.30682861
C       0.41979530     -1.02287915      0.26247845
C       0.33713539     -0.14146485     -0.95668570
C       0.27450657      1.05042164      0.07671343
C       0.92581332      0.12048516      1.13589970
O       0.78518406      2.31185276     -0.20999868
H      -1.80882954      1.38084941     -0.50246366
H      -1.69011840      0.90211240      1.22227288
H      -1.63874188     -1.33520480     -0.68238125
H       0.70848289     -2.06249347      0.29861801
H       0.72581740     -0.23718804     -1.95739764
H       0.57612428      0.20015402      2.16950491
H       2.01233942      0.19686714      1.09477063
H       0.64571291      2.88705431      0.55069041
