13
b3lypvtz=-239685.17064724
N      -1.72716983      0.56555604      0.68319635
C      -0.62848459      0.10964613     -0.02350075
N      -0.90063546     -0.93954497     -0.86984058
C       0.61841994      0.62464799      0.17092689
C       1.83635719      0.07719259     -0.37408197
N       2.16010240     -1.04808980     -0.84807559
F       2.82303939      1.01637855     -0.35714517
H      -2.57877903      0.68100718      0.15368962
H      -1.54248749      1.34287818      1.29622852
H      -0.31706894     -1.03517522     -1.68468321
H      -1.86188995     -1.20741071     -0.99045973
H       0.71180481      1.53139668      0.74951831
H       1.40689156     -1.71848265     -0.73227270
