16
b3lypvtz=-204418.28218503
C      -0.38558596      0.96019778      0.84350447
C      -0.14077748      0.38719203     -0.53285213
C      -1.09939849     -0.28667839      0.43983810
N      -2.53167363     -0.28188566      0.29223885
C       1.14777119     -0.25025946     -0.91865150
C       2.21080153     -0.61224721      0.02342289
O       2.35812967      0.52599147     -0.82505138
H      -0.96348392      1.87409880      0.89476606
H       0.39698672      0.90043154      1.58618904
H      -0.62149935      0.92285658     -1.34440858
H      -0.73299755     -1.20444681      0.88480729
H      -2.87468692      0.64416259      0.06917917
H      -2.82601488     -0.90203391     -0.45333647
H       1.09871299     -0.83340412     -1.83586471
H       2.85977679     -1.45278122     -0.20409901
H       2.10393930     -0.39119402      1.08031790
