12
b3lypvtz=-228835.51487583
C      -3.21485504      0.27007039      0.00005096
C      -2.08754661     -0.44029111      0.00002064
N      -0.84636864      0.18909837     -0.00011251
C       0.20603166     -0.52539500     -0.00012490
C       1.53539946      0.12399240     -0.00018509
N       1.83730977      1.33590236      0.00019568
F       2.51803611     -0.79949686      0.00004114
H      -3.18250440      1.35079673      0.00000545
H      -4.17965506     -0.21597733      0.00013343
H      -2.10858146     -1.53052867      0.00010482
H       0.19710194     -1.61909480     -0.00013079
H       0.98216928      1.89114052      0.00012717
