12
b3lypvtz=-226234.74581842
C      -1.91136290      0.87631203     -0.00111882
C      -1.05061015     -0.14729191     -0.11012255
O      -1.39037051     -1.45608506     -0.18228031
C       0.38294270      0.12149877     -0.15908831
N       1.25493505     -0.80754583     -0.26245740
C       2.61211710     -0.37424387     -0.29709059
O       3.00787982      0.76228000     -0.23927990
H      -1.54203372      1.88862705      0.04979535
H      -2.98270774      0.72996778      0.03896787
H      -2.34920342     -1.54220534     -0.14311518
H       0.66722759      1.17422235     -0.10159971
H       3.30118620     -1.22553596     -0.38671045
