16
b3lypvtz=-204456.04094865
N      -2.32635767     -0.10163314     -0.27657157
C      -1.11158304     -0.00330445      0.07328628
C      -0.34372853      1.27429442      0.33191527
C       1.06652170      1.21227208     -0.27756362
C       1.74193577     -0.10404912      0.08886953
O       0.96618317     -1.21398599     -0.33914253
C      -0.30906884     -1.26895136      0.29021373
H      -2.75573173      0.82131638     -0.37131392
H      -0.90606496      2.13270947     -0.04004371
H      -0.25300117      1.39351038      1.41836091
H       1.00193339      1.28087759     -1.36583913
H       1.67005220      2.05422171      0.06969638
H       1.90759714     -0.15903937      1.17559983
H       2.70833689     -0.20297623     -0.40472445
H      -0.18423088     -1.43275206      1.37274573
H      -0.84343546     -2.11637530     -0.13082473
