18
b3lypvtz=-181886.75651494
C       3.23336342      0.57762736     -0.00202186
C       2.21807861     -0.54717086      0.24193071
C       0.90229207     -0.30296613     -0.43264108
C      -0.26094980     -0.18710169      0.19620976
N      -1.47682591      0.05161661     -0.49772787
C      -2.46530757      0.87840720      0.20606308
C      -2.67468754     -0.57969053      0.07096316
H       4.18967757      0.35243592      0.47321844
H       3.41583162      0.71735320     -1.06938379
H       2.86913088      1.52502261      0.39833977
H       2.06267882     -0.67818127      1.31577899
H       2.64252016     -1.48761631     -0.12623334
H       0.90478794     -0.20270176     -1.51390088
H      -0.31553040     -0.27677514      1.28513357
H      -3.01045190      1.57384376     -0.41918993
H      -2.19664178      1.25688370      1.18689073
H      -2.54764030     -1.18823034      0.96027152
H      -3.37579288     -0.97101232     -0.65499598
