10
b3lypvtz=-274720.14551979
N      -1.85466419     -0.55980907     -0.15708108
C      -0.74517209      0.19426512     -0.02388775
O      -0.70273465      1.39150043      0.08916611
O       0.35649465     -0.65199615     -0.03892466
C       1.63014980     -0.15778218      0.07862805
N       2.08991718      0.98513850      0.20782189
F       2.41984722     -1.22567299      0.02768518
H      -1.79762633     -1.55772992     -0.24630804
H      -2.74528586     -0.09804643     -0.16506098
H       1.34927428      1.68003269      0.22806128
