13
b3lypvtz=-213761.45210457
C      -2.89688266      0.25926649      0.63387535
C      -1.67923397      0.64739295      0.24953698
C      -0.48287925     -0.13107440      0.48549332
N       0.65936340      0.29404825      0.09164420
N       1.74183107     -0.47696613      0.34046765
C       2.99287667     -0.07822748     -0.05694420
O       3.99050693     -0.73036102      0.14121100
H      -3.77008790      0.86601062      0.44117132
H      -3.05673002     -0.67796824      1.15321289
H      -1.53323072      1.58753507     -0.26946755
H      -0.58756770     -1.08751742      1.00756883
H       1.65758481     -1.36686883      0.82550213
H       2.96454936      0.89463013     -0.56927194
