14
b3lypvtz=-226973.50911386
N      -2.86473157     -0.61319263      0.28454819
C      -2.26753573      0.46318816      0.01756882
O      -0.95147639      0.71020031     -0.20423723
C      -0.04693452     -0.39648996     -0.15188252
C       1.32500182      0.12976362     -0.47055454
C       2.25956911      0.51314444      0.58682005
O       2.39898096     -0.73564204     -0.10378295
H      -2.25001823     -1.42227761      0.33901310
H      -2.81792189      1.39613594     -0.06577745
H      -0.05072934     -0.85393356      0.84118823
H      -0.34131550     -1.15399040     -0.88508341
H       1.42631260      0.59433969     -1.44720091
H       1.95150932      0.43579188      1.62447651
H       3.03320036      1.24399216      0.37854609
