15
b3lypvtz=-191187.51869162
C      -1.58880010     -0.60781029     -0.30567732
C      -1.05757846      0.62898998      0.48485941
C       0.38202829      0.23006174      0.11564224
C      -0.14385354     -0.96573447     -0.66041621
N       0.67852383     -1.13403844      0.52293576
C       1.50301998      1.14887596     -0.18186280
N       2.73951611      0.88505034     -0.10843179
H      -2.13010177     -1.36831802      0.26055338
H      -2.18824680     -0.32232874     -1.16838081
H      -1.36378714      1.56836685      0.02614824
H      -1.26914314      0.67591191      1.55464653
H       0.21793680     -1.37949977     -1.59166223
H       0.15517012     -1.42982594      1.34243645
H       1.20778036      2.15055306     -0.50426609
H       2.85753546     -0.08025418      0.21347525
