16
b3lypvtz=-202045.74603537
N       1.85879603      0.53976959      0.10953909
C       1.33844051     -0.73265916     -0.00978859
N       1.98328225     -1.81333500     -0.22716360
C      -0.16195512     -0.79166583      0.19431566
C      -0.92948624     -0.09974206     -0.91175402
C      -2.15384603      0.68599469     -0.64138592
N      -0.88106113      1.37601485     -0.92000482
H       2.79450560      0.69309936     -0.22921627
H       1.21195822      1.30433724     -0.02628595
H       2.98146340     -1.63416564     -0.34722378
H      -0.44818126     -1.84032452      0.24582102
H      -0.41041045     -0.31853407      1.14766154
H      -0.87165779     -0.59125955     -1.87718079
H      -2.50963270      0.78334437      0.37670116
H      -2.92855038      0.71254574     -1.39763197
H      -0.87376488      1.72657999     -1.87140277
