12
b3lypvtz=-200546.80680695
N       3.68992444     -0.40112500      0.00006801
C       2.62280711      0.04198540      0.00002764
C       1.32497353      0.60754203     -0.00002181
C       0.21151036     -0.14967674      0.00000163
N      -1.04694194      0.39796205     -0.00004842
C      -2.04482766     -0.41132732     -0.00002342
N      -3.31904943      0.02080403     -0.00003338
H       1.24543126      1.68651967     -0.00008010
H       0.31128166     -1.23739705      0.00006213
H      -1.93419286     -1.50039885      0.00002957
H      -4.08810250     -0.62176000     -0.00015402
H      -3.50420198      1.00972577     -0.00016684
