14
b3lypvtz=-180322.33658508
C       1.71866919     -0.24253772     -0.15662044
C       0.56274340     -0.60626566      0.77291451
C      -0.04065860      0.79457874      0.44995440
N       0.52762526      0.32553661     -0.93145932
C      -0.25619295     -0.96100714     -0.50549973
C      -1.68176798     -0.50446367     -0.30906644
C      -1.53897664      0.65861522      0.32394138
H       2.42514892      0.51944601      0.17357834
H       2.23208611     -1.04944580     -0.68015263
H       0.56872303     -1.13053168      1.73508923
H       0.40334702      1.70203345      0.85242692
H      -0.03307927     -1.85480470     -1.08337530
H      -2.57511834     -1.00542243     -0.64620510
H      -2.28364912      1.36886878      0.64597418
