16
b3lypvtz=-204454.09415698
C      -0.21373791      1.91247653     -0.56230849
C      -0.05255310      0.81123696      0.49388684
C       1.38046991      0.26498655      0.57464843
O       1.43762041     -0.78901038     -0.38827641
C       0.19773112     -1.48154514     -0.31497533
C      -0.82760243     -0.44784985      0.11051891
N      -2.07060351     -0.67454141      0.11553562
H      -1.26296797      2.17972817     -0.69476242
H       0.17465439      1.58242370     -1.52662459
H       0.32930720      2.81111241     -0.26551653
H      -0.39937057      1.17732335      1.46230833
H       2.14585723      0.99418955      0.31338149
H       1.59426881     -0.12497069      1.57852950
H       0.23678128     -2.29073974      0.42736413
H      -0.02824652     -1.91655800     -1.28726037
H      -2.59706533      0.13545999      0.44651390
