16
b3lypvtz=-227764.63383919
N      -2.23981036     -1.68459077     -0.21443746
C      -1.77548297     -0.55020144      0.08077638
O      -2.55403884      0.57912570      0.05127211
C      -0.33554721     -0.35316460      0.47666996
C       0.47029357      0.48697292     -0.52606204
C       1.93124989      0.66916221     -0.11922183
O       2.67963536     -0.54027108     -0.13539603
H      -3.22721699     -1.61885684     -0.46147364
H      -2.04218568      1.35037334      0.31766043
H      -0.30019589      0.12105250      1.46519455
H       0.09680659     -1.34750365      0.56896008
H       0.02699536      1.48253733     -0.63770464
H       0.43311738      0.01120959     -1.50821763
H       2.42634478      1.32646713     -0.83455691
H       1.99133096      1.15284722      0.86455112
H       2.41860406     -1.08525956      0.61208553
