14
b3lypvtz=-224603.35848538
N      -2.72158071      0.88135484      0.12204635
C      -2.32843400     -0.31449534      0.02623876
C      -0.90589919     -0.79866284     -0.13789624
N       0.02654616      0.30503673     -0.19168291
C       1.25818999      0.08737652     -0.03193364
N       2.19317567      1.10845526      0.09007926
O       1.79290493     -1.16436861      0.08137766
H      -1.90518142      1.49806222      0.06718890
H      -3.07646490     -1.11137100      0.06159610
H      -0.86072066     -1.39901153     -1.05661116
H      -0.68117263     -1.50026582      0.67643357
H       3.02457753      0.98829357     -0.47204535
H       1.77392695      2.01599243     -0.04922727
H       2.65329728     -1.10672343      0.51366696
