15
b3lypvtz=-193571.5278731
C       1.01816454     -0.17951839     -0.18066650
C       0.52838106     -1.21367582      0.77710043
C      -0.15452717     -0.89754494      2.13476357
C      -0.66722520     -2.33115591      2.07384917
C       0.45911647     -3.10838385      1.38003552
O       1.54390241     -2.20760412      1.15649257
C      -0.52792072     -2.37086377      0.55604199
H       0.21526994      0.51051862     -0.44411150
H       1.39529573     -0.64375156     -1.09226441
H       1.82933316      0.39354279      0.27399347
H      -0.96612388     -0.17936559      2.01715839
H       0.51006357     -0.60196967      2.94902661
H      -1.41679307     -2.81192312      2.68493279
H       0.65884127     -4.16075443      1.50910818
H      -1.19937811     -2.64725024     -0.24266029
