18
b3lypvtz=-205201.49429201
C       2.66021376     -0.39686440      0.24822845
C       1.40817169     -0.03442382     -0.53168911
C       0.65947820      1.23537575     -0.05025290
C      -0.45981634      0.29580249      0.45717861
C      -1.86522183      0.52277368     -0.07135988
O      -2.66562996     -0.63687007      0.10203997
N       0.20136875     -0.85857692     -0.21806588
H       3.00255302     -1.40191164     -0.01008258
H       2.47861348     -0.36471168      1.32537578
H       3.47218672      0.29793523      0.02155740
H       1.63297427     -0.04581684     -1.60099248
H       0.34266653      1.90094207     -0.85261452
H       1.17587289      1.81961436      0.70927174
H      -0.49360115      0.19857750      1.54575634
H      -2.35843201      1.33199867      0.47106803
H      -1.81258760      0.80437789     -1.13100505
H      -2.20282814     -1.34634597     -0.36119574
H       0.39799571     -1.64094030      0.39431681
