14
b3lypvtz=-203681.54878862
N      -2.77490999      0.02857399      0.11979101
C      -1.56730526     -0.15172663      0.44594953
C      -0.34883535     -0.02616156     -0.44935791
C       0.47536905      1.19860114     -0.14290683
C       1.70408571      0.84244970      0.20034630
C       1.84207557     -0.64766429      0.14685607
O       0.54082669     -1.12257389     -0.22029400
H      -2.85515828      0.25064483     -0.87658255
H      -1.33936769     -0.41064455      1.48223681
H      -0.68591922     -0.03652304     -1.49593903
H       0.08079203      2.20167075     -0.20483977
H       2.51357749      1.50505559      0.47025187
H       2.57852514     -0.97248654     -0.59846872
H       2.13150711     -1.08333449      1.10944422
