19
b3lypvtz=-195135.65649425
C      -2.89093212     -0.28607364     -0.46918611
C      -1.61702057     -0.66019482      0.29294775
C      -0.73489777      0.53717494      0.53484216
O      -0.00000321      1.05817411     -0.58597929
C       0.73489628      0.53717641      0.53483955
C       1.61702063     -0.66019164      0.29294234
C       2.89092721     -0.28606856     -0.46919889
H      -3.47638833      0.45585703      0.07805691
H      -3.52501870     -1.15932905     -0.62740661
H      -2.64508009      0.13562570     -1.44443065
H      -1.87807094     -1.09483984      1.26333647
H      -1.06997057     -1.42316293     -0.26053780
H      -1.21402097      1.31998996      1.12311257
H       1.21401994      1.31999236      1.12310836
H       1.06996957     -1.42316211     -0.26053894
H       1.87807716     -1.09483433      1.26333045
H       3.52501524     -1.15932260     -0.62742112
H       3.47638433      0.45586464      0.07803971
H       2.64506892      0.13562838     -1.44444288
