16
b3lypvtz=-202039.21774683
C      -2.64339972     -0.29015951     -0.06570892
N      -1.25461047     -0.65662728      0.10913116
C      -0.25306250      0.28835903      0.12067909
N      -0.33859127      1.52738761     -0.17076881
N       0.97569024     -0.29194011      0.52147107
C       2.20446567      0.39460802      0.16612016
C       1.83306690     -0.86625946     -0.52549610
H      -3.25157701     -1.19222495     -0.03570087
H      -2.79531919      0.17987054     -1.03936017
H      -3.00553535      0.39870904      0.70655244
H      -1.06130692     -1.46989833      0.66971760
H      -1.29452788      1.81045349     -0.36260620
H       2.09622353      1.32051037     -0.38222650
H       2.96864839      0.38212998      0.93262854
H       2.31618708     -1.80169141     -0.27245264
H       1.48258150     -0.78551503     -1.54780886
