16
b3lypvtz=-204445.41885733
C       2.35698462     -0.81163939      0.11583065
C       0.88804108     -1.09065307      0.04294225
C      -0.11273250     -0.23824467     -0.21825428
C       0.05467168      1.21685361     -0.44665475
N       0.80685978      2.04021384      0.16260615
C      -1.52856948     -0.73889997     -0.36489781
O      -2.44523141     -0.07464794      0.50298325
H       2.90977644     -1.57868002     -0.43113312
H       2.62257979      0.16215540     -0.29126186
H       2.71478641     -0.85468672      1.14937620
H       0.61355098     -2.13314506      0.18264399
H      -0.57981609      1.62797982     -1.23611172
H       1.32105191      1.57558069      0.91254687
H      -1.89758249     -0.52989451     -1.37209612
H      -1.55807500     -1.82426754     -0.22207287
H      -2.13627871     -0.18432247      1.40818617
