13
b3lypvtz=-242067.11040915
C      -2.66061975     -0.35793648     -0.00237112
C      -1.37505557     -0.70590630      0.08820695
C      -0.26505114      0.22207021      0.02163699
O      -0.61120153      1.54843412     -0.06115445
C       1.02339040     -0.16141466      0.02032911
N       1.59122642     -1.41090854     -0.12510401
F       1.96356625      0.83368498      0.05724696
H      -2.95627395      0.67070495     -0.15068891
H      -3.44261186     -1.09990426      0.07467836
H      -1.11423040     -1.74526751      0.24583218
H       0.19648791      2.07266054     -0.10110184
H       2.08790008     -1.76547476      0.68237688
H       0.98808214     -2.10434129     -0.53480708
