15
b3lypvtz=-170280.60518499
C      -4.01809216     -0.32581879     -0.00003529
C      -2.83675176     -0.08522293      0.00001771
C      -1.50063977      0.18714752      0.00007887
C      -0.31814413      0.43440802     -0.00000750
C       1.11028696      0.70694935      0.00004731
C       1.98002350     -0.56511315     -0.00002966
C       3.47202580     -0.24190413      0.00004592
H      -5.05778711     -0.53780251     -0.00008714
H       1.35743663      1.31704832      0.87517130
H       1.35748156      1.31719206     -0.87496239
H       1.72518261     -1.16646618     -0.87482625
H       1.72512360     -1.16660789      0.87465284
H       3.75260765      0.33820840      0.88188170
H       4.06961352     -1.15417072      0.00001197
H       3.75267611      0.33831764     -0.88169340
