12
b3lypvtz=-223783.48505356
C      -0.73312716     -1.54531321     -0.03404406
C      -0.43485505     -0.25457408     -0.17810633
C      -1.45461767      0.74619755     -0.54638558
N      -1.29585598      1.99314715     -0.71236549
O       0.80775166      0.32097663     -0.01505480
N       1.86367362     -0.61254788      0.35122964
N       2.92324431     -0.05064710      0.47876154
H      -1.75510591     -1.85477142     -0.19398457
H      -0.00534071     -2.29282941      0.23363999
H      -2.45119425      0.32607710     -0.68383547
H      -0.32184862      2.25737473     -0.55476615
H       2.85727577      0.96690995      0.30212763
