13
b3lypvtz=-237067.96505221
N      -2.64362554     -0.44738276     -0.06146099
C      -1.39759129     -0.73011044      0.00159550
C      -0.29210099      0.20408434      0.02312271
O      -0.56008562      1.57223800     -0.01221263
C       1.01200392     -0.15637872      0.01869160
N       2.05732357      0.73579533     -0.12844498
O       1.37784103     -1.46388005      0.10406733
H      -2.77711522      0.56302250     -0.14880249
H      -1.11769977     -1.77988721      0.06149137
H      -1.14503340      1.79089467      0.72346770
H       1.74811669      1.69724212     -0.14505103
H       2.82709853      0.58657992      0.51033035
H       2.14906009     -1.60271571     -0.46070044
