19
b3lypvtz=-195146.90930161
C       3.25740577      0.58301332      0.09330771
C       2.26885205     -0.53462532     -0.26718203
C       0.91450715     -0.33373292      0.34497036
C      -0.22489202     -0.18128279     -0.32350773
C      -1.56943970      0.02334546      0.31241655
C      -2.23946468      1.31705634     -0.12823278
O      -2.46891067     -1.03654553     -0.05403120
H       2.90864724      1.54726370     -0.27944016
H       3.37785922      0.66874130      1.17520428
H       4.24106105      0.38825438     -0.33682129
H       2.67988217     -1.48971206      0.07789500
H       2.17323713     -0.60974304     -1.35272674
H       0.88764206     -0.29473595      1.43300504
H      -0.22619043     -0.21711682     -1.41084619
H      -1.44631408      0.03856388      1.40283106
H      -3.23049269      1.39450517      0.31985910
H      -1.64613376      2.17936458      0.17700531
H      -2.35210947      1.33552885     -1.21332629
H      -2.03442235     -1.87308854      0.14068999
