16
b3lypvtz=-181119.98248299
C       2.08142200      0.80469483     -0.10917240
C       1.09633070     -0.08950737     -0.11485741
C      -0.40226127     -0.04032461     -0.09892749
C      -1.29866552      1.00672001      0.48445911
C      -1.30839720      0.74657776     -0.99861579
C      -0.38293257     -1.55561508      0.15086277
N       1.07698423     -1.49925658     -0.10204644
H       1.86055295      1.86187183     -0.13301525
H       3.12060330      0.50693528     -0.08705041
H      -0.83415869      1.91453923      0.84547315
H      -2.14809866      0.67292675      1.06624294
H      -2.16419203      0.23620828     -1.42099953
H      -0.84655323      1.47528447     -1.65091013
H      -0.92841243     -2.18213626     -0.55704796
H      -0.65238496     -1.83387039      1.17351843
H       1.73016339     -2.02504813      0.46013151
