16
b3lypvtz=-204418.10155643
C      -1.18840088     -1.05421825     -0.77900782
C      -0.64675392     -0.00524967      0.16846517
C       0.05635203      1.26229389     -0.39495657
N       1.26730232      1.05779317      0.48341777
C       0.66374412     -0.27273059      0.91742140
C       1.84682749     -0.21887669      0.04245968
O      -1.71212603      0.30960447      1.05848776
H      -0.43435681     -1.36701511     -1.49992220
H      -1.52080979     -1.92836563     -0.21762389
H      -2.04498103     -0.65545249     -1.32480628
H      -0.46603639      2.17894580     -0.12650491
H       0.29193504      1.27849870     -1.46122929
H       0.70976086     -0.61691332      1.94407972
H       1.76908992     -0.49725899     -1.00326041
H       2.80822431     -0.42887802      0.49348133
H      -1.39977123      0.95782272      1.69949855
