14
b3lypvtz=-250298.10512751
N      -1.99926867      0.88790265     -0.53176714
C      -0.90957767      0.43398799      0.21887779
O      -0.98528292      0.73532844      1.55656754
C       0.10203053     -0.29010171     -0.27379798
O       0.15789915     -0.49247620     -1.64886006
C       1.18267734     -0.94576207      0.51002354
O       2.47978478     -0.55702270      0.01048480
H      -1.90460825      0.63964818     -1.50746999
H      -2.14836627      1.88588753     -0.43557907
H      -1.90627576      0.62663105      1.82689656
H       1.09447226     -0.54225957     -1.87957719
H       1.07748223     -0.72969571      1.57281167
H       1.15843496     -2.02916055      0.36783695
H       2.60059828      0.37709266      0.21355259
