16
b3lypvtz=-204444.73867471
C       2.74462537      0.78031696     -0.14450834
C       2.27522762     -0.44911212      0.02105646
C       0.83239189     -0.86086958      0.06254711
N      -0.08061747      0.26488607      0.11569254
C      -1.45314025      0.04659691      0.01219684
C      -2.07955588     -1.12282275     -0.13409689
O      -2.16886128      1.21523181      0.06028814
H       3.80855394      0.97372681     -0.15864545
H       2.09019240      1.63001890     -0.28734847
H       2.97354164     -1.27129238      0.14220202
H       0.68650063     -1.55022967      0.90765745
H       0.59852980     -1.44098615     -0.83544044
H       0.14574975      0.91520685      0.85822946
H      -3.13959783     -1.13592099     -0.32907319
H      -1.55631226     -2.06017267     -0.04692455
H      -1.63767107      1.90790401     -0.35138169
