16
b3lypvtz=-181131.68713483
C      -1.64568353      0.55626774      0.01410295
C      -1.21544677     -0.91915531     -0.14221165
N      -0.04653327     -0.69209500      0.75260595
C      -0.25461452      0.79007448      0.65539452
C       0.86276969      1.26282111     -0.23222359
C       1.70840430      0.27142482     -0.49461927
C       1.26936382     -1.01077763      0.17686722
H      -2.46663268      0.69979374      0.71409523
H      -1.85467674      1.10299773     -0.90323980
H      -1.90975064     -1.67544848      0.22669813
H      -0.92891022     -1.17626254     -1.16744545
H      -0.26426360      1.31743876      1.61453107
H       0.96648397      2.28679076     -0.56552458
H       2.61417530      0.35533186     -1.08030684
H       1.98129134     -1.31847419      0.95175459
H       1.18402359     -1.85072787     -0.52047847
