15
b3lypvtz=-214542.623055
C      -2.20314759      0.56663756     -0.14538029
C      -1.00862099     -0.00565810     -0.34694189
C       0.23607341      0.83442511     -0.52846797
N       1.30553798      0.54055519      0.42309503
C       2.22800812     -0.42564680      0.21437339
O       2.29364004     -1.12759293     -0.77859609
N      -0.77372750     -1.36800095     -0.38099729
H      -2.29324655      1.63876867     -0.06306026
H      -3.11008228     -0.01754351     -0.06011774
H       0.64908128      0.66148109     -1.52397751
H      -0.02055852      1.88786430     -0.44588424
H       1.27018610      0.96964009      1.33288556
H       2.94532948     -0.51254751      1.04785630
H      -1.57446041     -1.96770001     -0.48741112
H       0.05598742     -1.67468221     -0.86676806
