16
b3lypvtz=-204424.804142
C      -2.05170016     -0.03521371      0.01087029
C      -0.56459048      0.08626160     -0.07712214
C       0.38473832     -0.74621813     -0.94357128
C       1.49174132     -0.55737861      0.16140945
C       0.47439488      0.24468077      0.97673592
N       0.12619626      1.39043132      0.09234231
O       2.68013807      0.10303236     -0.18723784
H      -2.35027502     -1.07704598      0.14219346
H      -2.44671598      0.53688139      0.85327449
H      -2.52916561      0.33525572     -0.89992398
H       0.07680151     -1.78660555     -1.04649405
H       0.61994191     -0.32917304     -1.92267594
H       1.77222072     -1.50000539      0.62738738
H       0.38646018      0.33437229      2.05111895
H      -0.48816008      2.00698094      0.61846224
H       2.41797418      0.99374403     -0.45676925
