18
b3lypvtz=-181825.78596881
C       1.17973967      0.23451046      0.20903191
N       0.49000277     -0.97020531      0.64257583
C      -1.03726452     -0.80397833      0.76647282
C      -1.15342860     -1.34008429     -0.69731820
C      -1.44441524     -2.46439949     -1.75381657
C       0.14755419     -2.48182560     -1.93519470
C       0.13554726     -2.00554869     -0.44326835
H       1.17571133      0.96005266      1.02432089
H       0.75416021      0.72830264     -0.67993430
H       2.22014226     -0.01166520     -0.00891021
H      -1.40745213     -1.47217213      1.54255908
H      -1.36591336      0.21825012      0.95832492
H      -0.94589754     -0.46121551     -1.31428561
H      -2.04656391     -2.20994029     -2.62492470
H      -1.79243712     -3.40157377     -1.32211939
H       0.45681707     -1.71733484     -2.64630349
H       0.62617082     -3.43156717     -2.17191435
H      -0.01407316     -2.91920526      0.13940441
