16
b3lypvtz=-209436.8590631
C       2.62250130     -0.62224226      0.00045822
C       1.48694685     -0.23385253      0.00023302
C       0.09282699      0.22232783     -0.00003796
C      -0.18999594      1.05734094      1.26587610
C      -0.18976811      1.05652262     -1.26654243
C      -0.78639659     -1.04126573      0.00029594
F      -2.13627551     -0.68858234      0.00006133
H       3.63013018     -0.95574425      0.00064921
H      -1.23879930      1.35132731      1.28929717
H       0.42599489      1.95597052      1.27263636
H       0.03175180      0.48609340      2.16760456
H      -1.23856796      1.35049074     -1.29034296
H       0.42622205      1.95514904     -1.27377233
H       0.03214391      0.48469406     -2.16786180
H      -0.60097996     -1.64238971     -0.89094491
H      -0.60113861     -1.64181165      0.89195950
