15
b3lypvtz=-191216.7951524
C       1.63654079      1.60292461     -0.23464136
C       0.91144300      0.52888385      0.07802499
C       1.51184303     -0.77337921      0.06326515
N       1.94336455     -1.84291401      0.06205593
C      -0.54737045      0.57376590      0.47301395
N      -1.37811790     -0.20063585     -0.44011940
C      -2.78029099     -0.22867948     -0.04364415
H       2.68282963      1.52680136     -0.49471531
H       1.19004812      2.58794402     -0.23307530
H      -0.87809688      1.61406268      0.44757638
H      -0.63650480      0.23484851      1.52014374
H      -1.02289108     -1.14750585     -0.50659642
H      -2.94815934     -0.59084110      0.98250468
H      -3.20105208      0.77670597     -0.11379002
H      -3.33666460     -0.86766238     -0.72863486
