14
b3lypvtz=-224606.13759307
C      -2.03680729     -1.30164574      0.05209178
O      -1.75048362      0.09972245     -0.06649757
C      -0.45842848      0.46292249     -0.02383904
N      -0.34750377      1.82543043     -0.02356454
N       0.48031331     -0.40891847      0.01852590
C       1.79537479     -0.01394618      0.22063471
N       2.82930723     -0.66509519     -0.12507859
H      -3.12012629     -1.37411856      0.01729830
H      -1.65528497     -1.69237887      0.99373809
H      -1.58640911     -1.85450168     -0.76987341
H      -1.18441216      2.34747383     -0.21980432
H       0.51506265      2.22964601     -0.34054533
H       1.95629216      0.91842961      0.77388779
H       2.54470654     -1.51804512     -0.61217276
