14
b3lypvtz=-226989.77065164
C      -1.47486019      0.52635899     -0.53130973
C      -0.53689037     -0.67124665     -0.28832835
C       0.74455429      0.04536901      0.06263356
C       0.45843071      1.33333917      0.27783102
O      -0.85981512      1.67975523      0.07880795
N       1.92883009     -0.66507754      0.30753583
O      -0.97318603     -1.57536340      0.72908135
H      -2.45704257      0.37130411     -0.08901105
H      -1.57871887      0.72668857     -1.60088232
H      -0.45623124     -1.28957808     -1.18480036
H       1.09654966      2.13732503      0.61080394
H       2.73569585     -0.07306091      0.44365139
H       2.12932381     -1.35883269     -0.40017631
H      -0.75664002     -1.18698084      1.58416307
