15
b3lypvtz=-214518.77899394
C       0.31834723      1.67746250     -0.24722353
C       0.34998646      0.18656727      0.08643489
C       1.68392136     -0.42904486     -0.27514418
N       2.66427449     -0.63012952      0.49544021
O      -0.63287695     -0.52663703     -0.68662253
C      -1.91734063     -0.59000006     -0.24988615
N      -2.47192564     -0.11269179      0.77582015
H       1.07096571      2.20937139      0.33553741
H       0.52928132      1.82956757     -1.30617233
H      -0.65923802      2.10531984     -0.02726163
H       0.16518868      0.02365589      1.15215772
H       1.79038713     -0.69088552     -1.32977493
H       2.44777896     -0.35844601      1.45796251
H      -2.49306560     -1.17333720     -0.96334113
H      -1.84871751      0.41987554      1.37759951
