14
b3lypvtz=-227009.51957333
C      -1.88039055      1.25670704      0.02697008
C      -1.29818714     -0.12371932      0.00579286
N      -2.24199287     -1.15408608     -0.09251474
C       0.01288821     -0.38047139      0.00191694
O       0.92735903      0.67520359     -0.04234606
C       2.23867383      0.37960394     -0.01352654
O       2.72119242     -0.71691419      0.04671268
H      -2.53407483      1.38217531      0.89567593
H      -1.10494000      2.01531702      0.07095824
H      -2.48942259      1.42287051     -0.86435696
H      -3.06619271     -1.00914384      0.47306759
H      -1.86995660     -2.08249591      0.04611555
H       0.45118970     -1.36564085     -0.00154807
H       2.80562610      1.31709617     -0.05538650
