14
b3lypvtz=-227000.74177
C       2.14311710      0.12374476     -0.64916278
C       0.78858380     -0.49050789     -0.32628237
O       0.74677580     -1.03453925      0.99323944
C      -0.33674668      0.56247822     -0.33945645
O      -0.19103131      1.49682791      0.70744071
C      -1.66260130     -0.09325384     -0.29816315
N      -2.69610355     -0.59735142     -0.28146139
H       2.16502530      0.50019797     -1.67332228
H       2.36369189      0.94519802      0.03111196
H       2.92998595     -0.62751562     -0.55818099
H       0.54008942     -1.26359246     -1.06165717
H       1.46571880     -1.66270418      1.10478443
H      -0.28306056      1.12626855     -1.27228662
H      -0.05355766      0.98666622      1.51725167
