16
b3lypvtz=-204408.35416939
C       2.12082130     -0.19068258      1.02639565
O       0.89593420      0.49026833      0.83188529
C       0.33599242      0.27969594     -0.44203263
C      -0.46544786     -1.02122681     -0.73143157
N      -1.69161704     -0.23117754     -1.10778376
C      -0.94744636      1.03843705     -0.69812088
C      -2.05907595      0.50687658      0.10828760
H       2.87268208      0.12086385      0.29061397
H       1.99871854     -1.27827908      0.95929681
H       2.47582145      0.06181273      2.02363536
H       1.08637932      0.46530547     -1.21835839
H      -0.10440058     -1.59160087     -1.58445164
H      -0.62052176     -1.68664009      0.11987238
H      -1.02733327      1.95634995     -1.26494832
H      -3.01009632      1.01563303      0.02041633
H      -1.86041014      0.06436405      1.07771387
