19
b3lypvtz=-171849.00147924
C       1.25090340     -0.18457432      1.38238980
C       0.61889246      0.00414330     -0.01052062
C       1.72900384      0.12832816     -1.06253615
C      -0.30206317      1.21042997      0.00131785
C      -1.58891776      0.88354291      0.00481518
C      -1.79304544     -0.60998500     -0.02067192
C      -0.37881766     -1.14660727     -0.34480220
H       1.90902519     -1.05679836      1.39463708
H       1.84634413      0.68658208      1.66461047
H       0.48473192     -0.32507978      2.14662903
H       2.33142136     -0.78246121     -1.10214217
H       2.40071743      0.95847658     -0.83140304
H       1.31111743      0.30038425     -2.05583296
H       0.08325188      2.22183000      0.05151097
H      -2.40931618      1.58779162      0.05586327
H      -2.15959152     -0.96633109      0.94838479
H      -2.53474380     -0.92309849     -0.75916784
H      -0.31716793     -1.37503993     -1.41028444
H      -0.14045259     -2.06383644      0.19483591
