17
b3lypvtz=-191984.67282292
C       2.16669980      1.26824197      0.04757886
C       1.39411450     -0.00006645     -0.34922708
C       2.16669481     -1.26837924      0.04756437
C       0.04183836     -0.00004090      0.29427165
N      -1.04386577      0.00006137     -0.36760779
C      -2.24429419      0.00012299      0.37131463
N      -3.39832119      0.00008855     -0.14271201
H       3.15101428      1.27193254     -0.42283927
H       2.31469492      1.31840398      1.12899968
H       1.63834750      2.16957879     -0.26465034
H       1.23474987     -0.00005746     -1.42862432
H       1.63834220     -2.16971143     -0.26467813
H       2.31468873     -1.31855878      1.12898454
H       3.15101024     -1.27206616     -0.42285185
H       0.03463194     -0.00000116      1.39563938
H      -2.15193501      0.00002405      1.46357047
H      -3.31458199      0.00010035     -1.16199679
