15
b3lypvtz=-191226.26060571
C       2.93991393     -0.72870976     -0.16666543
N       1.96075653      0.33840716     -0.09570974
C       0.80268072      0.06507553      0.32334407
C      -0.26262694      1.11828210      0.42785688
C      -1.48284615      0.84090843     -0.47857515
C      -2.19048924     -0.39003215     -0.13511537
N      -2.73682812     -1.36122399      0.15168294
H       2.55388627     -1.70466316      0.15430011
H       3.30398209     -0.80963089     -1.19258232
H       3.79884629     -0.46452116      0.45318833
H       0.51877906     -0.95251130      0.62687042
H      -0.60528627      1.18710972      1.46393908
H       0.17106818      2.07705629      0.14786931
H      -2.18996212      1.66936519     -0.40596619
H      -1.16780124      0.77893798     -1.52223994
