18
b3lypvtz=-181877.53913496
C      -2.59651232     -0.00000006      0.14665031
N      -1.27070004      0.00000010     -0.42597764
C      -0.32538866      1.05900967     -0.00633637
C       0.77468870     -0.00000012      0.04102468
C       2.05746706      0.00000006     -0.72397468
C       2.06413327     -0.00000037      0.78938080
C      -0.32538872     -1.05900982     -0.00633712
H      -3.14581401     -0.88139530     -0.18970312
H      -3.14581397      0.88139546     -0.18970249
H      -2.59166710     -0.00000045      1.25114152
H      -0.55438088      1.47298342      0.98730326
H      -0.21538477      1.88036220     -0.71879883
H       2.34763111     -0.90990021     -1.23337430
H       2.34763122      0.90990056     -1.23337383
H       2.36063796      0.90906512      1.29693564
H       2.36063799     -0.90906613      1.29693517
H      -0.21538486     -1.88036183     -0.71880020
H      -0.55438098     -1.47298431      0.98730219
