16
b3lypvtz=-181112.89192087
C       2.85496317      0.31987637     -0.92350492
C       1.96160259      0.28212064     -0.12296299
C       0.84844193      0.24394801      0.82151430
C      -0.51344272      0.09830131      0.13466391
C      -0.99700434     -1.28699805     -0.18697755
C      -1.63213943     -0.50333116      0.93780832
N      -0.89713032      1.12576481     -0.80178609
H       3.65501425      0.34772578     -1.62022676
H       1.00058464     -0.57882352      1.52537182
H       0.85297598      1.16414788      1.41609545
H      -1.56671248     -1.40349543     -1.09707934
H      -0.36119643     -2.12390794      0.06723793
H      -2.62120462     -0.10240985      0.77027668
H      -1.42902385     -0.81218357      1.95450719
H      -0.21207863      1.19829327     -1.54647316
H      -0.94364978      2.03097145     -0.34602556
