16
b3lypvtz=-204475.14170953
C      -2.31332286     -0.68619068     -0.29953268
C      -1.10126099     -0.11129187      0.41959531
C      -0.68441059      1.30598037     -0.06766925
C       0.85211332      1.26863139     -0.02426334
C       1.08594954     -0.21706278      0.01359554
O       2.34028151     -0.67223182     -0.16600029
N       0.08843563     -0.96377215      0.23877054
H      -2.12418277     -0.75637901     -1.37271489
H      -3.19028054     -0.05372554     -0.14613217
H      -2.54183562     -1.68607416      0.06974920
H      -1.32087742     -0.08500358      1.49341724
H      -1.11461947      2.10207759      0.53847075
H      -1.02603638      1.45320673     -1.09405901
H       1.26656136      1.72738693      0.87772834
H       1.34140129      1.73996352     -0.87656047
H       2.30561600     -1.63571094     -0.08052883
