18
b3lypvtz=-181875.87331066
C      -1.95083042     -0.09588901     -1.09595696
C      -1.23987485      0.47146034      0.12020811
C      -0.86882727     -0.49318654      1.30889256
C       0.59244326     -0.08074440      1.14193734
C       0.25224402      0.81360367     -0.00350720
N       0.98434515     -0.44259914     -0.22973140
C       2.40378344     -0.24046659     -0.49921453
H      -2.94899426     -0.45474817     -0.83530868
H      -2.06506063      0.66338368     -1.87355921
H      -1.38572258     -0.92926436     -1.51313054
H      -1.78162522      1.33392890      0.51236595
H      -1.06431712     -1.55335825      1.14547671
H      -1.30832745     -0.18014892      2.25480771
H       1.34749965      0.03670416      1.90702226
H       0.69416168      1.75466982     -0.30346629
H       2.95314457     -1.13906752     -0.21475178
H       2.84062653      0.61439894      0.03860116
H       2.54533152     -0.07867662     -1.56876335
