14
b3lypvtz=-224587.63602844
C      -2.62294604      0.22021756      0.58669000
N      -1.46156334     -0.20441915     -0.16924565
N      -0.31889337      0.46133152      0.10187319
C       0.78812172     -0.10005343     -0.22024591
C       2.04856080      0.58595995     -0.00171424
N       3.12436970     -0.02302891     -0.32036941
O       0.85493532     -1.34243054     -0.76451843
H      -2.55432246     -0.01801681      1.65479456
H      -2.73830423      1.29782011      0.48195534
H      -3.50568339     -0.26668478      0.17338083
H      -1.35910319     -1.20311165     -0.30918952
H       1.98040124      1.58434768      0.42957232
H       3.95749460      0.52613664     -0.12956785
H       1.80693263     -1.51806819     -0.88446787
