16
b3lypvtz=-204450.72451269
C      -2.51315032      0.14236624      0.16738140
N      -1.66183879     -0.86492395     -0.46405281
C      -0.34891923     -0.97527863      0.12742318
C       0.65710132      0.10886619     -0.26280417
O       0.41023247      0.91199812     -1.13900474
C       1.96077788      0.08520982      0.46087136
C       2.91884861      0.97213294      0.21082495
H      -2.08221336      1.15169581      0.18586939
H      -3.46380011      0.18840357     -0.36390216
H      -2.72670780     -0.15867431      1.19536600
H      -1.55439746     -0.63620615     -1.44551848
H       0.11242898     -1.93337024     -0.15028516
H      -0.43657693     -1.00403013      1.21821811
H       2.09849668     -0.68535617      1.21146164
H       3.86200209      0.96008728      0.74019733
H       2.76771597      1.73707960     -0.54048415
