19
b3lypvtz=-171822.6155028
C       2.83815024     -0.71000503     -0.74386663
C       2.09820971     -0.06122685     -0.05672281
C       1.19072514      0.71405556      0.78360162
C      -0.17420296      0.03719404      1.01832851
C      -1.02497242     -0.20105665     -0.23805997
C      -2.26219707     -1.03233393      0.11465278
C      -1.43031281      1.10524294     -0.92803467
H       3.49733506     -1.27819872     -1.35091946
H       1.67076176      0.88499415      1.75110659
H       1.05109420      1.70266544      0.33890540
H      -0.73972298      0.65634825      1.72227771
H       0.00034221     -0.92039343      1.51498564
H      -0.41956505     -0.78099182     -0.94154140
H      -1.98492107     -1.98593834      0.56810859
H      -2.85973970     -1.24598336     -0.77347499
H      -2.90287377     -0.50051197      0.82360688
H      -2.04580321      0.90369758     -1.80661718
H      -0.56625580      1.67998299     -1.26338477
H      -2.01435647      1.73841714     -0.25396783
