14
b3lypvtz=-201270.0605092
N       3.30766666     -0.19376844      0.05590353
C       2.22309316     -0.21666501     -0.59241912
N       0.96665713      0.11772583     -0.05924181
C      -0.04717022      0.00434683     -0.82422126
C      -1.40900246      0.30941628     -0.35837066
C      -1.90245755     -0.37217383      0.88637248
N      -1.59128954      1.04583210      0.89735533
H       3.12516104      0.10360076      1.01716458
H       2.24476935     -0.51404258     -1.64674911
H       0.05185497     -0.32341440     -1.86615671
H      -2.12837647      0.53578638     -1.13544937
H      -1.21775517     -1.06122665      1.36550302
H      -2.95342625     -0.62350733      0.95424036
H      -0.67002465      1.18799008      1.30596873
