16
b3lypvtz=-204436.09540315
N       2.86665733     -0.45058955     -0.17264450
C       1.96007555      0.22361012     -0.74989439
C       0.58754139      0.54657416     -0.28273914
C       0.19031147      0.44351632      1.17459251
C      -0.33083422     -0.56331352      0.21020809
C      -1.79680024     -0.60692511     -0.17227409
O      -2.41779139      0.67312055     -0.21207380
H       2.56758267     -0.77489963      0.75047489
H       2.20600147      0.61817798     -1.73890757
H       0.10612646      1.34111536     -0.83844737
H      -0.49903124      1.19487060      1.53225003
H       0.95224958      0.14126030      1.88099389
H       0.13292892     -1.54348835      0.24048629
H      -2.34091039     -1.18085944      0.58116803
H      -1.91651544     -1.12832204     -1.12785150
H      -2.26739192      1.06625222     -1.07564135
