13
b3lypvtz=-190454.24007372
C       0.69210499     -0.69253472     -0.83507165
C      -0.16989935     -0.49272057      0.38549682
C       0.91253342      0.52361831      0.01794140
C       2.08009951      0.62320649      0.84418956
N       3.01761654      0.69580621      1.50974911
C      -1.58775564     -0.08505484      0.22214174
N      -1.94276254      0.72280902     -0.68682879
H       1.43664342     -1.47394611     -0.80208305
H       0.21615000     -0.51964989     -1.78930460
H       0.04233861     -1.12203608      1.23755694
H       0.53402827      1.45927365     -0.37152954
H      -2.28583933     -0.53353182      0.93598263
H      -2.94525791      0.89476034     -0.66824056
