17
b3lypvtz=-215320.65167017
C      -2.36368962      0.77837970      0.80850266
C      -2.18453034     -0.11102327     -0.42059725
C      -0.83537888     -0.82947288     -0.47513268
N       0.28214798      0.09498654     -0.61317705
C       1.46330983     -0.09642313      0.06508736
N       2.48298979      0.76621718     -0.32617726
O       1.62715047     -0.94888761      0.91905349
H      -2.30493362      0.19148969      1.72727422
H      -1.58932091      1.54465229      0.85684713
H      -3.33229181      1.28014991      0.79362786
H      -2.31596071      0.48255634     -1.33188328
H      -2.96810354     -0.87325230     -0.44451486
H      -0.65686858     -1.38960250      0.44114670
H      -0.83494947     -1.55144689     -1.29904140
H       0.33090870      0.62018628     -1.47109560
H       3.25917124      0.75749153      0.31577436
H       2.22061346      1.68861713     -0.63615540
