18
b3lypvtz=-181865.26247059
C       2.45831025      0.35646341      0.31878780
N       1.36106609     -0.59290793      0.18178882
C       0.20521739     -0.04366148     -0.49013576
C      -0.83791538      0.76836258      0.34369790
C      -1.84824541      0.45490382     -0.79255495
C      -1.10486139     -0.88009703     -0.51524549
C      -1.27119113     -0.57212408      1.00116033
H       2.76871601      0.81987784     -0.63122008
H       3.32374841     -0.14358067      0.75401256
H       2.16613021      1.16010408      0.99700534
H       1.67946824     -1.41777617     -0.31198570
H       0.45632888      0.42931624     -1.45241020
H      -0.68235073      1.72780931      0.83494752
H      -2.90228126      0.48367841     -0.52003507
H      -1.66902029      0.92861274     -1.75885059
H      -1.25816273     -1.83449476     -1.01888449
H      -0.55516191     -1.03647688      1.67194187
H      -2.28979524     -0.60800941      1.38798018
