14
b3lypvtz=-226992.52967902
N       2.11018576      1.35134585     -0.47119276
C       1.05553255      0.68895360     -0.26560045
C       0.99346447     -0.80021085      0.04349514
O      -0.15913054     -1.21446218      0.75657932
C      -1.33491141     -0.71024443      0.14148512
C      -1.30546305      0.79843525      0.18249110
O      -0.12928206      1.32709526     -0.45149603
H       2.93215977      0.76453311     -0.34975973
H       1.05411288     -1.33811004     -0.91450639
H       1.85490717     -1.07903567      0.64658566
H      -2.18321166     -1.09307875      0.70830772
H      -1.41029838     -1.07086436     -0.89341345
H      -1.32908828      1.14329788      1.21998617
H      -2.14897720      1.23244532     -0.35306139
