17
b3lypvtz=-191944.0630076558
C       2.36942970     -0.08242705     -0.22363402
N       1.27153212      0.16074286      0.71484756
C      -0.01684868      0.16890262      0.12959876
C      -0.81853468     -0.97737700     -0.52328438
C      -2.12770280     -0.28989374     -0.00311287
C      -1.26548258      0.80964515      0.61504152
N      -0.50415236      1.41204626     -0.51246419
H       2.38636747      0.71071577     -0.97141898
H       2.30140974     -1.04234036     -0.75219088
H       3.31524859     -0.05428114      0.31709211
H       1.30949615     -0.49570999      1.48451798
H      -0.64140400     -1.94060849     -0.04433399
H      -0.71211867     -1.07603797     -1.60299983
H      -2.65580812     -0.89443825      0.73299083
H      -2.82391652      0.05211653     -0.76802861
H      -1.44645937      1.38054330      1.51478444
H       0.05894399      2.15840152     -0.10740544
