17
b3lypvtz=-194300.81764546
C       1.08437461      0.39950574     -0.74510863
C       0.16362062      0.83505115     -1.87840622
C      -0.58451153      2.15842262     -1.46328844
C       0.65178374      2.87780200     -2.19826402
C       0.66469540      1.56481750     -3.05847217
C       1.08965724      0.16072094     -3.58402438
O      -0.01140958     -0.38505014     -2.74834202
H       0.51073936     -0.27584094     -0.10601527
H       1.41771206      1.23279504     -0.12629759
H       1.95919157     -0.14560369     -1.09616455
H      -1.50816093      2.33856064     -2.00850218
H      -0.72684857      2.35131917     -0.39968337
H       1.49503499      3.01040776     -1.52525602
H       0.44161805      3.80928504     -2.71943514
H      -0.22623605      1.71893950     -3.67289037
H       2.05304222     -0.22882260     -3.25550044
H       0.92889679     -0.04220973     -4.64084921
