14
b3lypvtz=-222154.90971597
C      -0.62307483     -1.57663262     -0.31190975
N      -0.64145551     -0.12751629     -0.23715635
C      -1.81283810      0.61475397     -0.37901154
N      -1.97483015      1.86918565     -0.33404721
N       0.50237650      0.57476230     -0.02110181
N       1.51798959     -0.13594248      0.09365243
N       2.63616791      0.59610452      0.39826252
H      -0.23292889     -2.00561708      0.61246100
H       0.01121000     -1.91689362     -1.13241594
H      -1.64106975     -1.92153599     -0.47318076
H      -2.67075923     -0.03245678     -0.54962006
H      -1.08985530      2.34614438     -0.16685937
H       3.45490829      0.13940918      0.02678701
H       2.56415949      1.57623488      0.13963746
