14
b3lypvtz=-224599.37278993
N      -2.61935287     -0.87903786     -0.12603486
C      -1.62654862     -0.08137327      0.00412919
N      -1.66574226      1.30898599      0.08318115
N      -0.35329561     -0.61447953      0.02713425
C       0.83954336      0.08896928     -0.16451387
C       2.03486141     -0.37453306      0.19740309
O       3.18399795      0.28563428     -0.17300890
H      -3.50593692     -0.39017814     -0.05720782
H      -0.96568430      1.73964304      0.66872316
H      -2.58713633      1.68355965      0.23833856
H      -0.35044524     -1.61979805     -0.01738376
H       0.76473692      1.03562039     -0.68429119
H       2.15670714     -1.31329721      0.72794825
H       3.90166937      0.01999149      0.40741974
