13
b3lypvtz=-237093.00216566
C      -2.52292157     -0.17972978     -0.01557611
O      -1.15966760     -0.64117030     -0.03899289
C      -0.22203877      0.30955108      0.00844830
O      -0.45257911      1.49319791      0.06545281
C       1.18633868     -0.27204120     -0.00015641
N       1.47054281     -1.51275389      0.05435471
N       2.13085645      0.70533411     -0.08555285
H      -2.72108206      0.36417252      0.90640731
H      -2.71433708      0.47370730     -0.86475332
H      -3.13428402     -1.07459863     -0.07298897
H       0.62203835     -2.06857192      0.07477836
H       1.84698463      1.65419113      0.08306892
H       3.08724429      0.44323465      0.07538115
