20
b3lypvtz=-182659.74357467
C      -0.65205593      0.30408070      1.50368691
C      -0.66820641      0.01151279     -0.00289664
C      -1.32948566     -1.35576549     -0.24785153
C      -1.45382597      1.10924854     -0.73808065
C       0.74084536     -0.04171400     -0.59168520
C       1.92065909      0.68768573     -0.06993707
N       1.78461230     -0.76344645      0.14574195
H      -0.30586012      1.31753846      1.71344329
H      -1.65947448      0.21212986      1.91345496
H      -0.00265998     -0.39593241      2.02889610
H      -1.35880327     -1.59529656     -1.31367752
H      -0.77641508     -2.14637626      0.26136746
H      -2.35629038     -1.36473595      0.12338107
H      -1.50243979      0.91231204     -1.81168827
H      -2.47822483      1.16800805     -0.36485570
H      -0.98878612      2.08713671     -0.59747954
H       0.73311233     -0.18541650     -1.66997519
H       2.65547097      1.04272995     -0.78314222
H       1.84490716      1.28409663      0.82957761
H       2.38468783     -1.27934885     -0.48753381
