18
b3lypvtz=-181896.51382291
C      -2.50568520     -0.81057685     -0.00064867
C      -1.37402871     -0.09545397     -0.03656549
C      -1.38003324      1.40678513      0.01422695
N      -0.11972131     -0.69966170     -0.19389263
C       1.04509031     -0.19011175      0.47641085
C       1.92800470      0.80418253     -0.22999438
C       2.38196299     -0.62010489     -0.05524861
H      -2.49690968     -1.89319568     -0.02460446
H      -3.46815914     -0.32330668      0.02141417
H      -0.82557852      1.78280319      0.87637617
H      -0.91022160      1.82963683     -0.87638171
H      -2.40101635      1.77570402      0.07924264
H      -0.17579542     -1.70769860     -0.15528616
H       0.97501026     -0.08235288      1.55715022
H       2.40114974      1.57531147      0.36188305
H       1.62488600      1.10720277     -1.22142555
H       2.37842925     -1.25075478     -0.93336639
H       3.16799594     -0.83264815      0.65516501
