18
b3lypvtz=-205198.30774243
C      -2.71313348     -0.48810569     -0.24987085
C      -1.33388752     -0.71442665      0.36905323
C      -0.24440832      0.21461032     -0.17774375
N      -0.55213042      1.61454957      0.13481366
C       1.08823592     -0.10954020      0.45091454
C       2.06947436     -0.97891635     -0.19781759
O       2.24502682      0.44218272     -0.19705681
H      -3.43165553     -1.21765975      0.12590688
H      -3.10588006      0.50104408     -0.00911766
H      -2.68204487     -0.58556090     -1.33776861
H      -1.39234043     -0.57924271      1.45232973
H      -1.02314897     -1.74758197      0.19068088
H      -0.14616771      0.03538014     -1.25994999
H       0.20448258      2.20685329     -0.18906313
H      -1.38617465      1.91688801     -0.35311567
H       1.11231092     -0.01883293      1.53430594
H       2.78104467     -1.53350947      0.40529581
H       1.84100269     -1.41464548     -1.16566860
