15
b3lypvtz=-214498.82851621
C       3.12056149      0.61823034      0.46508767
N       2.01050858      0.04288222      0.67737751
N       0.94824570      0.88695955      0.96013469
C      -0.13624973      0.65383393      0.33243746
C      -0.37007645     -0.38827285     -0.72095978
C      -1.81229595     -0.86959279     -0.75919302
O      -2.63395021      0.22965656     -1.14945018
H       3.98940534     -0.00420622      0.28550150
H       3.23159299      1.70256233      0.45801190
H      -0.97231050      1.29556913      0.59400431
H       0.31192792     -1.22389102     -0.55344914
H      -0.12053516      0.02761507     -1.70304319
H      -2.10847982     -1.24629253      0.22704284
H      -1.90153209     -1.69530338     -1.47375655
H      -3.55681212     -0.02975037     -1.08109310
