13
b3lypvtz=-213739.66500074
C       2.37196950     -0.91775226      0.33738899
C       1.43222519     -0.27350885     -0.03518795
C       0.26170262      0.46621189     -0.50388024
O       0.37389287      1.81917834     -0.09080425
C      -1.04799429     -0.18407233      0.00353803
N      -1.88982327      0.39414276      0.75464148
N      -1.27512837     -1.43892854     -0.51593919
H       3.21162625     -1.47206603      0.67619193
H       0.24160241      0.40264631     -1.59918520
H      -0.21074806      2.34867900     -0.64318018
H      -1.55360436      1.32088343      1.00526218
H      -0.46357231     -2.00202146     -0.71485211
H      -2.02856818     -1.93908826     -0.06974850
