14
b3lypvtz=-224544.36520278
N      -2.14845658     -0.97345090     -0.12455288
N      -2.21032276      0.25817973     -0.34496035
N      -1.10231991      0.93258149     -0.03579224
C       0.00588763      0.37471298      0.72979202
C       0.99678776     -0.38450712     -0.12337738
C       2.17054284      0.27460979     -0.69586266
O       2.29067909     -0.56068483      0.46191298
H      -3.05451600     -1.34659214     -0.40977325
H      -1.23015540      1.92650947     -0.08826633
H       0.51928337      1.19905577      1.22477051
H      -0.40031167     -0.29538583      1.49123323
H       0.59959667     -1.26382990     -0.61817841
H       2.33041881      1.33420184     -0.51830198
H       2.62421517     -0.11890636     -1.59944926
