14
b3lypvtz=-203719.34748067
O       0.62328004      2.60266650      0.02019919
C       0.34465034      1.41573128      0.01150462
C       1.42779528      0.35174908      0.05941018
C       0.94357600     -1.06476299      0.04147331
C      -0.34050590     -1.38951005     -0.01175325
C      -1.44083278     -0.38032519     -0.05939629
N      -0.94622969      0.98600753     -0.04136941
H       2.10086318      0.54796061     -0.78059370
H       2.02742016      0.55105090      0.95266899
H       1.69513416     -1.84537293      0.07419768
H      -0.65050166     -2.42709853     -0.02296478
H      -2.11770421     -0.53957415      0.78954281
H      -2.04487135     -0.54273591     -0.96104756
H      -1.62217359      1.73421385     -0.07167179
