19
b3lypvtz=-192743.81163962
C       2.14515205     -0.56985522      0.32268551
C       0.82582161     -0.27237726     -0.38838781
C       0.56352407      1.25819199     -0.56143145
N      -0.80607070      1.54027097     -0.11154939
C      -1.04989948      0.52451710      0.91565407
C      -0.42458732     -0.77652623      0.37915838
N      -1.37047399     -1.39527833     -0.56333318
H       2.32495503     -1.64331459      0.40829725
H       2.98783526     -0.13524804     -0.21934372
H       2.15348027     -0.14826611      1.33098535
H       0.84153511     -0.75136840     -1.36981915
H       0.70620732      1.60074697     -1.58582430
H       1.26222888      1.81820781      0.06833465
H      -1.43922504      1.34951185     -0.88032298
H      -2.11548718      0.42906875      1.12806231
H      -0.55057090      0.82620244      1.84153348
H      -0.13404621     -1.45020250      1.19553364
H      -0.93721378     -2.17825539     -1.03955190
H      -2.17275300     -1.76619481     -0.06589676
