18
b3lypvtz=-228514.23839618
C      -1.44007828     -0.39905531      1.30352768
C      -0.78640697     -0.56127122     -0.06381353
O      -1.75109038     -0.48040575     -1.11699602
C       0.28085024      0.48977162     -0.37084688
O      -0.23468507      1.76740852      0.00357027
C       1.62661310      0.23225422      0.33341051
N       2.38987390     -0.93796147     -0.09307738
H      -0.70608782     -0.46385714      2.10840635
H      -1.94257057      0.56361512      1.36931493
H      -2.17170082     -1.19448557      1.46544997
H      -0.29301418     -1.54125344     -0.11190188
H      -2.50520756     -1.02969245     -0.88309276
H       0.44350023      0.45140403     -1.45563594
H       0.29853551      2.44908297     -0.41378476
H       2.25020748      1.11682541      0.17439528
H       1.46754910      0.16892501      1.41180599
H       1.91107250     -1.79825258      0.14018541
H       2.52756360     -0.93704100     -1.09726323
