17
b3lypvtz=-191968.12619503
C      -2.22159486     -0.57999249     -0.20733419
C      -1.20973269      0.52683611     -0.53459916
C      -0.05211321      0.56499817      0.43983289
N       0.13147651      1.41697677      1.36674905
N       0.82017288     -0.52844451      0.31153078
C       1.84331637     -0.54596548     -0.73081678
C       2.20467017     -0.40887187      0.71069400
H      -1.74274049     -1.55807913     -0.22111176
H      -2.65400081     -0.43078434      0.78300123
H      -3.03471854     -0.58371950     -0.93438124
H      -0.81980993      0.37004679     -1.54398802
H      -1.70194932      1.50054479     -0.52831041
H      -0.62160795      2.10129176      1.37795156
H       1.97796134     -1.48833230     -1.24702020
H       1.94522297      0.33918611     -1.34925993
H       2.60982880     -1.25883215      1.24467695
H       2.52541875      0.56324126      1.06228521
