14
b3lypvtz=-227030.96874448
C       0.70898839      1.95479404      0.00001487
C      -0.05447706      0.65812615      0.00001490
C      -1.41052798      0.64619604      0.00000104
O      -2.17868431     -0.43293111      0.00000104
C       0.63132658     -0.63626592      0.00002740
N       1.99001254     -0.63595659      0.00002155
O       0.01550610     -1.71873293      0.00004349
H       1.34729482      2.06051631     -0.88288266
H       0.02305273      2.80206852      0.00000166
H       1.34727592      2.06052523      0.88292446
H      -1.97485013      1.57371937     -0.00001803
H      -1.54327402     -1.20613263      0.00002051
H       2.46221468     -1.52308243     -0.00000512
H       2.52992474      0.20858994     -0.00003510
