9
b3lypvtz=-214612.13380427
C      -3.63029061      0.01354093     -0.00001063
C      -2.42574314     -0.00890638     -0.00000754
C      -1.06612881     -0.03195171     -0.00000404
C       0.14276262     -0.05051345     -0.00000104
C       1.58930077     -0.12379057      0.00000246
O       2.20264070     -1.15262346      0.00000407
O       2.21736808      1.07607271      0.00000388
H      -4.69224300      0.02926126     -0.00001340
H       1.56844339      1.79177767      0.00000223
