15
b3lypvtz=-193584.83704156
C      -1.70945029     -1.15060999      0.20242900
C      -0.96714826     -0.09678001     -0.08800329
C      -1.20267227      1.29520834     -0.62763729
O       0.22439637      1.57682547     -0.54911412
C       0.47532079      0.25826072     -0.03375963
C       1.51260638     -0.00586431      1.00836889
C       1.69269518     -0.52422547     -0.40452384
H      -2.78235426     -1.14270713      0.06184378
H      -1.27092031     -2.06076621      0.59173551
H      -1.78249164      1.96480989      0.01221253
H      -1.57030179      1.35484449     -1.65484274
H       1.27341771     -0.70656016      1.79741641
H       2.11522835      0.84036729      1.30932513
H       1.57765796     -1.58353670     -0.59280071
H       2.41401608     -0.01926621     -1.03264962
