19
b3lypvtz=-192750.87554514
C       1.01246784     -0.31514244      1.49363677
C       0.79307201      0.01289493      0.00584373
C       1.08629510     -1.22167507     -0.85912746
C       1.71901267      1.15889283     -0.41641729
N      -0.58728706      0.48256231     -0.23346536
C      -1.71586222     -0.27749113     -0.05899197
N      -2.93281221      0.09694755      0.00482703
H       0.82615015      0.56319359      2.11382778
H       2.03629056     -0.64844808      1.67356535
H       0.33774325     -1.10683482      1.82188395
H       0.89312112     -1.00816198     -1.91046070
H       0.47809540     -2.07798127     -0.56792155
H       2.13195772     -1.51274194     -0.75048199
H       1.52137318      2.05820674      0.17211253
H       1.58062351      1.40063391     -1.47092584
H       2.76224583      0.88456452     -0.26041158
H      -0.72149559      1.47971791     -0.15073149
H      -1.51582038     -1.34612655     -0.00413589
H      -3.01858288      1.11364896     -0.05716103
