15
b3lypvtz=-216945.8034604
C       3.30568316      0.25515634     -0.14818552
C       1.97606502     -0.42925534     -0.21207222
C       0.87459948     -0.01854930      0.40478240
C      -0.44459815     -0.72484765      0.33602707
C      -1.60886611      0.19496953     -0.01424254
O      -1.55822974      1.38964729     -0.04420869
O      -2.78350569     -0.44271380     -0.27594127
H       4.07167119     -0.40950924      0.26093843
H       3.26561449      1.15088049      0.47161866
H       3.64488897      0.54612849     -1.14604850
H       1.93210624     -1.33049672     -0.81981082
H       0.89214736      0.88751495      1.00030223
H      -0.69225436     -1.17374286      1.30730463
H      -0.40475362     -1.54949909     -0.38115132
H      -2.66913327     -1.39866908     -0.22110753
