16
b3lypvtz=-232751.91616091
C      -2.29544530     -0.11990602     -0.74358737
C      -1.03263550     -0.65267000     -0.12862693
O      -0.77900316     -0.33568974      1.25286739
C       0.13639179      0.15578119      0.25690909
C       0.21673869      1.64923589      0.07720155
C       1.47285312     -0.54541291      0.33819166
F       2.17714735     -0.37630007     -0.85634517
H      -2.48010152      0.91603050     -0.46854698
H      -3.14919343     -0.71347692     -0.41141059
H      -2.24327537     -0.19035851     -1.83218092
H      -0.83165642     -1.69589489     -0.36674865
H       0.78972680      1.88631075     -0.82013726
H      -0.76673890      2.10457648     -0.00259166
H       0.72828734      2.09757180      0.93177898
H       2.08196723     -0.12507195      1.14232541
H       1.33592829     -1.61341661      0.50844643
