22
b3lypvtz=-183437.30874899
C       3.35698911      0.29097285     -0.16219918
C       2.13511936     -0.48053720      0.31719309
N       0.90335869      0.10954599     -0.19340137
C      -0.30476052     -0.61194025      0.18825436
C      -1.57756819      0.05983270     -0.33995460
C      -1.76090186      1.46550188      0.23768863
C      -2.80025986     -0.81957258     -0.06573638
H       3.43833173      0.26113761     -1.25172081
H       4.27285301     -0.13690041      0.24794782
H       3.29484777      1.33636855      0.14160340
H       2.23724443     -1.54398271      0.04001717
H       2.08928036     -0.45330536      1.40968629
H       0.95397847      0.16886104     -1.20516314
H      -0.34431504     -0.64226104      1.28279961
H      -0.28617185     -1.66282744     -0.14849506
H      -1.46935436      0.15129284     -1.42832841
H      -1.92937386      1.41736928      1.31722824
H      -0.87610082      2.07643326      0.06593884
H      -2.62238243      1.96494220     -0.20993306
H      -3.70836510     -0.36524538     -0.46566344
H      -2.94718054     -0.95741708      1.00886962
H      -2.69420148     -1.80834877     -0.51650261
