14
b3lypvtz=-226995.44452955
C       1.20044671      1.83020222      0.40788059
O       0.81791216      0.87215671     -0.58079240
C      -0.16499256     -0.01821059     -0.16589557
C      -1.54654837      0.43113414     -0.14947375
O      -2.50821599     -0.23140809      0.19653875
C       0.17559200     -1.30153598      0.09322364
N       1.44298121     -1.78296906      0.06418610
H       0.35694878      2.46243156      0.69725182
H       1.59610032      1.33888414      1.30157939
H       1.97414432      2.45168286     -0.03970173
H      -1.67484564      1.47365289     -0.50807224
H      -0.61466929     -1.99221250      0.35453003
H       1.59226611     -2.77468262      0.02988994
H       2.14920525     -1.20468167     -0.36129158
