14
b3lypvtz=-226989.74661803
C       2.43571692     -0.34979699      0.18513917
O       1.19750715     -0.76850737     -0.37552700
C       0.05983955     -0.23812573      0.25645974
C      -0.07580823      1.21827072      0.02440460
N      -0.20939662      2.34282563     -0.18025250
C      -1.17040837     -0.97530585     -0.30238444
O      -2.36730967     -0.54930159      0.31133152
H       3.21666478     -0.86511958     -0.36835630
H       2.57587862      0.73047849      0.08436072
H       2.50085467     -0.62364025      1.24362675
H       0.09599748     -0.39273931      1.34248748
H      -1.18762566     -0.85857468     -1.38950520
H      -1.04908029     -2.03262363     -0.07315199
H      -2.60686333      0.31951514     -0.02810956
