15
b3lypvtz=-214508.19750876
N       1.54710298      1.34898426      0.27626956
N       1.60066302      0.27525309      1.12607632
C       0.98303287     -0.80088010      0.82856183
C       0.19750020     -1.11491788     -0.41732639
C      -1.32101520     -0.82425978     -0.29867023
C      -1.64010417      0.64392982     -0.14791128
O      -2.30141331      1.26739150     -0.94049576
H       2.31418618      1.97500067      0.46419164
H       1.45975383      1.14467443     -0.71441509
H       1.03031368     -1.57285981      1.59053542
H       0.31185006     -2.17905044     -0.63081889
H       0.59331045     -0.58789163     -1.28968698
H      -1.70855484     -1.34604248      0.58279598
H      -1.84583531     -1.19723150     -1.17848736
H      -1.22079045      1.13779983      0.74928123
