12
b3lypvtz=-202879.90014583
C       3.50178289     -0.82249888      0.24720659
C       2.38298838     -0.48969917     -0.04651770
C       1.08250168     -0.09113605     -0.43109279
C       0.01676526     -0.07880697      0.39081660
C      -1.29400524      0.33478580     -0.04156176
N      -2.26586721      0.32302431      0.79020641
O      -3.44836957      0.75384957      0.19095482
H       4.48543246     -1.11780300      0.51491822
H       0.96075274      0.22155884     -1.46387121
H       0.11602003     -0.38640009      1.42401218
H      -1.45002536      0.65428201     -1.07140981
H      -4.08797607      0.69884362      0.90873845
