15
b3lypvtz=-212132.32678003
N      -1.45432739     -1.52239301     -0.25000683
C      -1.15498245     -0.29905092     -0.02218937
N      -2.06918794      0.72535954      0.23709176
C       0.24688910      0.16639632     -0.07763815
N       0.46821311      1.57068227     -0.17949118
C       1.26139829     -0.69718536      0.07739968
N       2.60625774     -0.31301133      0.07050184
H      -2.44862043     -1.69542715     -0.11179498
H      -1.73982962      1.46228978      0.84347895
H      -3.00408736      0.41788462      0.45424376
H       1.36678212      1.76344869     -0.60604016
H      -0.24223413      2.00941924     -0.75195228
H       1.04010335     -1.74948325      0.16377709
H       2.79953687      0.55057402      0.55967392
H       3.23732175     -1.03471648      0.37982495
