11
b3lypvtz=-236285.73540544
C       1.35396016      1.55719730     -0.25991088
C       0.71102326      0.45187375      0.09759325
N       1.27015050     -0.80529968     -0.21827819
N       0.61011553     -1.78172474      0.17660150
O      -0.44842077      0.49914609      0.85716361
C      -1.62122555      0.14751574      0.25743930
O      -1.78281887     -0.03177438     -0.90909314
H       0.95968881      2.53425927     -0.02746534
H       2.29114560      1.46954153     -0.78657056
H       1.12587214     -2.62069082     -0.11785783
H      -2.39314181      0.09117193      1.03259027
