14
b3lypvtz=-180355.94348874
C       0.97080935      1.56327055      0.74234712
C       0.66130643      0.46524011      0.04572643
C      -0.68941444      0.28609929     -0.62401218
C      -1.51676545     -0.81707002     -0.00154912
N      -2.70963964     -0.74051043      0.41148969
C       1.59147879     -0.60743176     -0.10206851
C       2.34363101     -1.53257057     -0.25769555
H       0.26224005      2.37360614      0.84948880
H       1.93571889      1.67640629      1.21565714
H      -0.52448134      0.02940505     -1.67648683
H      -1.24498622      1.22443653     -0.59203474
H      -1.01565673     -1.78295676      0.08674181
H      -3.08300131      0.20394402      0.28692633
H       3.01876061     -2.34186844     -0.38453042
