15
b3lypvtz=-212067.3460844
C      -1.99874056     -0.02643296      0.34196628
C      -0.61060008     -0.63770075      0.23599453
N       0.46241728      0.32685175     -0.00227841
N       1.75426112     -0.03599910     -0.12125891
C       2.09394126     -1.26201415     -0.02799042
N       0.11661824      1.63434014     -0.10418344
N       1.04808696      2.43572732     -0.30745125
H      -2.06388162      0.68377093      1.16356740
H      -2.28165329      0.49160815     -0.57189223
H      -2.71364126     -0.83132256      0.52065639
H      -0.37448605     -1.18227762      1.15653523
H      -0.58929990     -1.37165103     -0.57682996
H       3.14948350     -1.47809428     -0.13390054
H       1.41838073     -2.09576416      0.14693385
H       0.58901368      3.34895833     -0.35186851
