16
b3lypvtz=-204437.2479498
C      -2.18563163      0.14522149     -0.70050816
N      -1.02124770     -0.63745116     -0.31026248
C      -0.70573470     -0.76127473      1.09030661
C       0.18575975      0.05116661      0.18961382
C       0.28356711      1.54947085      0.34572821
C       1.42796896     -0.63354607     -0.28277760
O       2.50559068     -0.10295309     -0.38251087
H      -3.04664638     -0.52321958     -0.73393148
H      -2.42300482      0.97359681     -0.02314465
H      -2.03170000      0.54663489     -1.70228481
H      -1.28482207     -0.18415475      1.80638308
H      -0.40623839     -1.74520442      1.43471414
H       0.42020494      2.03324259     -0.62297015
H       1.15539865      1.79339144      0.95181469
H      -0.59628092      1.97205426      0.82578029
H       1.27473353     -1.70002114     -0.54357062
