16
b3lypvtz=-204453.80637486
C       3.06275613      0.12007505     -0.31992820
C       2.00899544     -0.11317920      0.45147821
C       0.75596624     -0.80349340      0.00577587
C      -0.47382736      0.08675683      0.01426563
N      -0.53338599      1.35068281      0.02508806
O      -1.59023464     -0.67223635     -0.01805974
C      -2.83811986      0.02850816     -0.07234481
H       3.94528413      0.61666493      0.06106096
H       3.08327116     -0.18234017     -1.36050508
H       2.03083544      0.20759992      1.48882430
H       0.54252977     -1.66166226      0.64853645
H       0.87486328     -1.20062714     -1.00577060
H       0.39948207      1.75271250      0.03651481
H      -3.60436065     -0.74167746     -0.09931342
H      -2.88979326      0.65418926     -0.96289931
H      -2.96159989      0.66321551      0.80443586
