12
b3lypvtz=-221366.73383335
C       1.91151822     -0.00390589      0.04645332
N       0.60566388      0.63164421     -0.02467866
C      -0.45977916     -0.02729146     -0.00910023
N      -0.50078405     -1.46970804      0.07956523
N      -1.60536750     -2.03079341      0.08707168
N      -1.76403489      0.64107954     -0.08192155
N      -1.77322874      1.86995008     -0.15910487
H       2.67881892      0.76541250      0.01329039
H       2.05724488     -0.69464752     -0.78553216
H       2.01744138     -0.57867394      0.96791346
H      -2.37617227     -1.33601108      0.02477997
H      -0.79132068      2.23294500     -0.15873656
