13
b3lypvtz=-190464.57669843
C      -3.00331804     -0.54920305      0.01748143
C      -1.86454175      0.15234711     -0.02266131
C      -0.54849772     -0.43660185     -0.00200896
C       0.61940393      0.25033899     -0.00194860
N       0.76598075      1.63481061     -0.05927726
C       1.85161408     -0.47945210     -0.00467430
N       2.86012469     -1.03876249      0.00265498
H      -2.99954275     -1.63071305      0.07547688
H      -3.96759504     -0.06196310     -0.00901693
H      -1.93617282      1.23341530     -0.09213459
H      -0.48264971     -1.51594581      0.00761803
H      -0.00898613      2.16971016      0.29803915
H       1.65384652      1.98521629      0.26210748
