12
b3lypvtz=-223833.54225613
N      -2.37051464     -0.16233045     -0.70898116
C      -1.10961059     -0.12854554     -0.14133459
N      -0.95400690     -0.32190933      1.14737235
O       0.46297786     -0.30298338      1.33944409
C       1.05171118     -0.08559462      0.15970429
N       2.42285663     -0.09446776      0.16266721
C       0.12393414      0.04021592     -0.83189156
H      -2.50210721      0.47736961     -1.47626071
H      -3.11444711     -0.10201101     -0.02944722
H       2.86122738      0.40541718     -0.59269920
H       2.84153598      0.08753548      1.06159525
H       0.28624329      0.18730388     -1.88416874
