13
b3lypvtz=-190477.76099878
N       2.75545548     -1.20339858     -0.20040202
C       2.17059640     -0.22477709     -0.04649958
C       1.39608946      0.99901291      0.14432520
C      -0.06735399      0.86191235     -0.30857650
C      -0.83288336     -0.21257072      0.48139113
C      -2.22873531     -0.30673177      0.06752487
N      -3.32675714     -0.36149335     -0.27059183
H       1.87983731      1.80187328     -0.41472970
H       1.44628243      1.27480035      1.20059350
H      -0.10136030      0.62479807     -1.37180413
H      -0.55572325      1.82782178     -0.17870147
H      -0.80734496      0.00989574      1.55118895
H      -0.36380478     -1.18999196      0.34842557
