19
b3lypvtz=-171828.81419826
C      -0.16939702      1.86633292     -0.00854843
C      -0.30105083      0.54344036      0.07113696
C      -1.56664944     -0.09081271      0.60480684
C      -2.40427003     -0.80255019     -0.46771736
C       0.77059155     -0.40810712     -0.34584303
C       2.21160856     -0.01442752     -0.49185312
C       1.79591795     -0.88699201      0.66227787
H       0.71708107      2.33279661     -0.41636692
H      -0.95470017      2.52953132      0.33197223
H      -2.17716974      0.67866238      1.08095212
H      -1.30242223     -0.81265947      1.38422746
H      -3.30743911     -1.22958611     -0.02873840
H      -2.70605463     -0.10508063     -1.25063028
H      -1.85341945     -1.61723648     -0.93967786
H       0.43413906     -1.17846560     -1.03064833
H       2.77879359     -0.46327690     -1.29547790
H       2.49124162      1.00480869     -0.26792931
H       2.07781889     -1.93096784      0.65413384
H       1.77226136     -0.43238070      1.64325262
