14
b3lypvtz=-203649.64261134
C      -2.95099050      1.14485916     -0.06660216
C      -2.22392144      0.21003105      0.12294176
C      -1.34140723     -0.93516968      0.35761825
O      -0.18168946     -0.94916316     -0.47060989
C       0.72396231      0.06531607     -0.22173644
C       2.01128387     -0.21477242     -0.02553522
N       3.02379703      0.71207330      0.24688583
H      -3.59741032      1.96941154     -0.23704561
H      -1.87505902     -1.85872387      0.12883256
H      -1.05199239     -0.96341916      1.41454864
H       0.32594272      1.07561596     -0.24092068
H       2.32712793     -1.25083270     -0.02377205
H       2.77008438      1.67161765      0.06016237
H       3.90586212      0.49153924     -0.19113936
