18
b3lypvtz=-205196.02488806
C       1.48573468      1.21137326     -0.61272574
C       1.17893483      0.13446048      0.41560884
O       2.02898271     -0.97334514      0.08648243
C      -0.27362480     -0.32472533      0.49410032
C      -1.04928818     -0.76380268     -0.77165594
N      -2.25983758     -0.10918538     -0.21343029
C      -1.42645470      0.68511564      0.72155850
H       0.91311733      2.11881129     -0.42180158
H       1.26576909      0.86318000     -1.62183851
H       2.54543724      1.46126250     -0.56810768
H       1.45577903      0.52240036      1.40666732
H       1.87715462     -1.67744793      0.72477827
H      -0.33620867     -1.11260340      1.24952072
H      -1.15537559     -1.83479485     -0.94804359
H      -0.66429949     -0.29556888     -1.68287672
H      -2.80144976      0.43304982     -0.87464907
H      -1.18053168      1.68963477      0.36059607
H      -1.83079109      0.76666448      1.73219065
