12
b3lypvtz=-226260.43310072
C       2.17274164     -0.52184250     -0.44499235
C       1.03830316     -0.05917519      0.45932962
C       0.44638274      1.27370466      0.10074884
N      -0.79244580      1.22754919     -0.17643468
C      -1.18908573     -0.14948741     -0.03014275
O      -2.27627054     -0.59824473     -0.19752647
O      -0.10288967     -0.90928299      0.34260421
H       3.03340136      0.14007753     -0.33723666
H       1.85809813     -0.52329998     -1.48834365
H       2.47777558     -1.53041450     -0.17090040
H       1.36525755     -0.06237527      1.50490378
H       1.01502058      2.19733220      0.07133850
