12
b3lypvtz=-223859.49585344
C       1.96530394     -0.66385092     -0.00000016
N       0.53532691     -0.43615287      0.00000233
C      -0.48270467     -1.35327900      0.00001031
N      -1.65306220     -0.80261561      0.00002837
N      -1.38037781      0.54467935      0.00001601
H      -2.12755578      1.21466154     -0.00000562
C      -0.03743471      0.84109885     -0.00000301
O       0.53382553      1.91344894      0.00000411
H       2.15407778     -1.73502212      0.00006511
H       2.42039605     -0.21719315      0.88347769
H       2.42037919     -0.21730460     -0.88354339
H      -0.31975722     -2.41819340     -0.00001577
