17
b3lypvtz=-212847.27863234
C      -3.21482878     -0.67807183      0.10491208
C      -1.78749480     -0.43404741     -0.38216342
C      -1.14093595      0.78242160      0.28778646
N       0.22366611      1.07416858     -0.12540151
N       1.15581980      0.19210712      0.35109285
N       2.13895663      0.06047975     -0.39302142
N       3.15188082     -0.68174312      0.18803742
H      -3.85666153      0.18237230     -0.09796462
H      -3.23859876     -0.86008328      1.18155911
H      -3.65952633     -1.54428507     -0.38646653
H      -1.78540611     -0.28794267     -1.46702402
H      -1.16826354     -1.31254485     -0.18545696
H      -1.12235364      0.64605342      1.37051865
H      -1.73378601      1.67837992      0.08844882
H       0.35106387      1.27447740     -1.11479717
H       3.63051173     -1.20089246     -0.53380238
H       2.81057150     -1.28132440      0.93596965
