13
b3lypvtz=-211330.70751095
C       3.22052879      0.62172449     -0.51516044
C       2.09584215     -0.08816664     -0.41808104
N       0.84614949      0.51927369     -0.42373974
C      -0.17635320     -0.23449045     -0.33130940
N      -1.45143472      0.32370868     -0.33369573
N      -2.34127794     -0.56462123     -0.24540006
N      -3.56768301     -0.07544890     -0.19895513
H       4.18635270      0.13754518     -0.50924211
H       3.18388834      1.69890227     -0.60167049
H       2.13794888     -1.17627166     -0.33038287
H      -0.12585816     -1.32785487     -0.24735379
H      -4.30449056     -0.74175288     -0.34331511
H      -3.70361276      0.90745233     -0.40907327
