13
b3lypvtz=-211323.27939893
C      -2.57376124      0.04788625     -0.00007340
C      -1.46177310     -0.67512694      0.00002402
N      -0.13186193     -0.19108630      0.00000592
C       0.92555264     -1.14119658      0.00002827
N       2.17430534     -0.97339117     -0.00001394
N      -0.01220104      1.15803920     -0.00007528
N       1.14997778      1.61243227     -0.00008094
H      -2.56560068      1.12615223     -0.00018573
H      -3.52579653     -0.46063015     -0.00003407
H      -1.49958102     -1.75487610      0.00014269
H       0.51583318     -2.15051546      0.00005334
H       2.41630012      0.01353190     -0.00004710
H       1.03892248      2.62899684     -0.00014879
