19
b3lypvtz=-195143.11064164
C      -3.23828831     -0.84729461     -0.16713534
C      -2.08513527     -0.06715505      0.38608870
C      -1.14139304      0.52822903     -0.33600150
C       0.00708911      1.32631719      0.21095101
C       1.38937096      0.82747132     -0.24122106
C       1.74197199     -0.54977606      0.29216718
O       3.05354199     -0.87532535     -0.16828108
H      -3.21169289     -0.88250929     -1.25687556
H      -4.19369966     -0.40831772      0.13444528
H      -3.23719855     -1.87542918      0.20611662
H      -2.03741046      0.01117059      1.47011335
H      -1.18795573      0.45026357     -1.42117131
H      -0.04426354      1.34236201      1.30353458
H      -0.09479568      2.36632738     -0.11687004
H       2.15690029      1.53098158      0.08947026
H       1.43819271      0.80200013     -1.33327693
H       1.70693871     -0.54153636      1.38974282
H       1.01235211     -1.28891720     -0.05586800
H       3.27266127     -1.76240199      0.12956301
