15
b3lypvtz=-214508.10701562
C       0.10875122     -1.20636233     -0.55747981
C       0.68033667      0.24578854     -0.57022691
C      -0.41451890      0.58333945      0.45774637
N      -0.58239263      1.41179501      1.39124228
C      -1.18320593     -0.69420090      0.12137174
O      -2.19564456     -0.49305146     -0.85959815
N       2.08183610      0.44475593     -0.28540042
H       0.68356064     -1.85513744      0.10325535
H      -0.02873749     -1.68910306     -1.52204670
H       0.44494241      0.71734754     -1.52599402
H       0.16343402      2.11425794      1.39417038
H      -1.55798631     -1.26465244      0.97510611
H      -2.88283820      0.05755152     -0.46901660
H       2.30144666      0.23584704      0.68134040
H       2.38101630      1.39182468     -0.47737616
