18
b3lypvtz=-202826.89080611
C      -1.07576519     -0.31889353      1.39385342
C      -0.56091521      0.04013844     -0.00837060
C      -1.22246610     -0.85861021     -1.06807515
N      -0.86966255      1.46571938     -0.23638628
C       0.97568235     -0.16263866     -0.02237508
N       1.57304261     -1.29269749     -0.00253784
N       1.70300987      0.99436152     -0.05845230
H      -0.62929192      0.33329713      2.14439351
H      -2.16177629     -0.20453771      1.43918937
H      -0.83154671     -1.34973601      1.64456155
H      -0.86465907     -0.60425133     -2.06716536
H      -1.02015208     -1.91689331     -0.90231586
H      -2.30506581     -0.71909632     -1.04439986
H      -0.74045696      1.70532680     -1.21356460
H      -1.84132831      1.64747254     -0.01418612
H       0.91437409     -2.06379974     -0.01930130
H       2.68642150      0.90493877      0.13387575
H       1.22879676      1.84267473      0.20106874
