17
b3lypvtz=-171080.29119778
C      -3.75757969     -0.27173748     -0.00000009
C      -2.58483445      0.37053323      0.00000131
C      -1.29236518     -0.27600429     -0.00000042
C      -0.11639728      0.37963540      0.00000108
C       1.17914300     -0.25822466     -0.00000065
C       2.34684433      0.39751446      0.00000111
C       3.69590734     -0.24351689      0.00000065
H      -4.69700157      0.26315616      0.00000133
H      -3.80885384     -1.35400049     -0.00000176
H      -2.57910647      1.45708309      0.00000438
H      -1.28889395     -1.36296008     -0.00000335
H      -0.12519689      1.46680811      0.00000352
H       1.18639066     -1.34563317     -0.00000339
H       2.32893227      1.48453231      0.00000408
H       3.62458872     -1.33157539     -0.00001011
H       4.27769572      0.05949838      0.87589430
H       4.27770330      0.05951530     -0.87588199
