14
b3lypvtz=-224547.0561642
C      -2.71115639      0.40864492     -0.04676901
O      -1.42224880      0.57127582     -0.60610295
C      -0.45434717     -0.26073460     -0.00701693
C       0.84379153     -0.05648874     -0.71684313
N       1.95188334     -0.16522557     -0.10518614
N       3.05577805      0.02381908     -1.01421288
N       4.15090956     -0.10828660     -0.48099245
H      -3.37760361      1.08738016     -0.57436040
H      -2.71980083      0.65654935      1.02115207
H      -3.07386361     -0.61904488     -0.17061295
H      -0.74065034     -1.32098570     -0.10517599
H      -0.33656297     -0.05167163      1.06259284
H       0.80446560      0.16910009     -1.78346607
H       4.02940565     -0.33433169      0.52661722
