13
b3lypvtz=-239630.88733152
C       0.67279851      1.82666530     -0.00000157
N       0.68628385      0.38068722      0.00000243
C      -0.48774015     -0.36258065      0.00003449
C      -1.70839075      0.16532710      0.00007238
F      -2.79011940     -0.64337865      0.00008899
N       1.90988520     -0.18835697     -0.00000521
N       1.92538031     -1.43857218      0.00001623
H       1.70400592      2.16579557     -0.00005107
H       0.16354691      2.21037485     -0.88804833
H       0.16362987      2.21038384      0.88808946
H      -0.34136161     -1.43164941      0.00002453
H      -1.97378094      1.21146452      0.00007949
H       2.91320227     -1.69415855      0.00000118
