14
b3lypvtz=-203674.02963753
C      -1.01656855     -0.14234336     -0.83697055
C       0.15988894      0.85344502     -0.55271185
C       1.30859121     -0.13005744     -0.28955023
N       0.58369012     -1.17546053      0.52666184
C      -0.77451300     -0.58424885      0.62919043
C      -0.46782375      0.90815664      0.86011308
O      -0.69946633      1.75055987      1.67528531
H      -0.83293935     -0.90730852     -1.58931546
H      -1.97361646      0.35171427     -0.98862992
H       0.35207726      1.73975352     -1.14765668
H       2.13083970      0.33051963      0.26046750
H       1.70870182     -0.57123428     -1.20372210
H       1.00072221     -1.25417413      1.44717546
H      -1.47958381     -1.16932183      1.20966315
