18
b3lypvtz=-181910.91926297
C      -1.17238618     -0.82491580      1.12569079
C      -0.78653511      0.29486368      0.14471504
C      -1.30444335      0.00006298     -1.27305322
C       0.70127840      0.59872254      0.16699647
C       1.16532594      1.79365146      0.55047836
C       1.70237887     -0.40704580     -0.23255420
N       1.41017452     -1.58363253     -0.61869995
H      -0.83206666     -0.59641526      2.13727893
H      -2.25840169     -0.93394433      1.15443921
H      -0.73909273     -1.77610258      0.82340738
H      -1.27954827      1.20960203      0.48623340
H      -2.39122447     -0.10398752     -1.25616064
H      -0.87687078     -0.92190539     -1.66172330
H      -1.05641069      0.81202886     -1.95907940
H       2.22662161      2.01003155      0.56560451
H       0.50206237      2.59061665      0.86018416
H       2.73750350     -0.05059292     -0.16811909
H       2.25163472     -2.11103763     -0.84563846
