15
b3lypvtz=-191161.41958741
C      -0.30242182      1.79339858     -0.48751009
N      -0.76857143      0.40617913     -0.48195946
C       0.25481294     -0.69312058     -0.75692540
C      -0.73864689     -1.64642229     -0.04367033
C      -0.67907073     -0.36971671      0.83559505
C       0.83214276     -0.39443494      0.63793986
N       1.86567189     -0.12794397      1.29664214
H      -0.17490969      2.10890737     -1.52383073
H       0.63567639      1.96932861      0.05363750
H      -1.07949196      2.41663529     -0.04374615
H       0.73927808     -0.80560398     -1.72388367
H      -1.68075284     -1.77838611     -0.57107647
H      -0.33553230     -2.56300798      0.38042467
H      -1.27322652     -0.10631184      1.70601177
H       2.70504213     -0.20950055      0.72235133
