15
b3lypvtz=-191212.9297568
C      -3.04014070     -0.39046792     -0.17311329
C      -1.72080987     -0.46067185     -0.28202962
C      -0.75718579      0.06911021      0.74098584
N       0.11303349      1.13135890      0.20552944
C       1.16044156      0.69655310     -0.70353708
C       2.12511484     -0.26840519     -0.13034796
N       2.85299629     -1.00994720      0.36498709
H      -3.69567836     -0.80875342     -0.92548413
H      -3.51502165      0.08498239      0.67737093
H      -1.29166078     -0.95618361     -1.14780004
H      -0.17089689     -0.76676891      1.15268531
H      -1.31850487      0.50586733      1.56711640
H       0.52491786      1.64585202      0.97348410
H       0.71629544      0.24465622     -1.59165653
H       1.71854444      1.56918392     -1.04591646
