14
b3lypvtz=-231989.5546187
C       2.17897566     -0.00325823     -0.08796101
C       1.14239868      0.81424137      0.11168285
C      -0.25710728      0.41510760      0.20414734
C      -1.22507849      1.30908589      0.40643127
F      -0.96183179      2.62601048      0.53589179
C      -0.61337216     -1.04086087      0.06741266
O      -2.01918724     -1.22086954      0.18579041
H       2.07001842     -1.07375682     -0.20306077
H       3.18656544      0.38467811     -0.14287713
H       1.32860926      1.87565354      0.21814897
H      -2.27612958      1.08410746      0.48470112
H      -0.08277747     -1.61003539      0.84116010
H      -0.25630185     -1.40354775     -0.90474458
H      -2.21478158     -2.15655584      0.09381787
