16
b3lypvtz=-181142.59060767
C       2.76819798      0.00400260     -0.15413403
C       1.47550045     -0.01109509     -0.45433709
C       0.35473901     -0.00362991      0.55268443
C      -0.55669282      1.20054081      0.35857939
C      -1.68891412      0.80291766     -0.22507378
N      -1.73086437     -0.57532802     -0.46916584
C      -0.65440136     -1.17029906      0.34766586
H       3.53122438      0.01209125     -0.92149009
H       3.11090461      0.01150559      0.87462543
H       1.16507865     -0.01096705     -1.49577545
H       0.78845945     -0.04674744      1.55397410
H      -0.25600501      2.22004406      0.53548054
H      -2.50957146      1.42026862     -0.56183856
H      -2.63594316     -1.01197733     -0.37502520
H      -0.20756113     -2.02926571     -0.15188139
H      -1.03885509     -1.49425598      1.32157166
