12
b3lypvtz=-231239.73072833
C      -2.26862852     -0.43295100     -0.17402575
C      -0.94387484     -0.42358697     -0.32792493
C      -0.07488477      0.57556031      0.26000251
F      -0.72686968      1.50469059      0.98525459
C       1.26243850      0.69126476      0.17658345
C       2.13345924     -0.21673687     -0.56050751
O       3.33714222     -0.08130142     -0.61522042
H      -2.77777716      0.31994134      0.41039066
H      -2.87362806     -1.20110034     -0.63419090
H      -0.45938250     -1.18895988     -0.91783515
H       1.74463907      1.51362346      0.68854520
H       1.64736649     -1.06044397     -1.08517175
