13
b3lypvtz=-211350.77599183
C      -3.09136948     -0.68782069     -0.03111814
N      -2.27773371      0.28410325      0.05305738
N      -0.94466546     -0.09116433     -0.14011320
C      -0.14410693      0.89388390      0.06480085
N       1.21974343      0.80358631     -0.07057446
C       1.78831002     -0.32026708      0.18091981
N       3.08947030     -0.53786101     -0.08396017
H      -4.14681064     -0.48038318      0.10112808
H      -2.76417925     -1.70798385     -0.23178720
H      -0.53290305      1.87905778      0.31662228
H       1.25690071     -1.16301194      0.62547039
H       3.64113908      0.20481964     -0.47984849
H       3.55067399     -1.36770980      0.23786586
