13
b3lypvtz=-239489.28196859
C       2.37843403      0.72056442     -0.64357560
C       1.22587791      0.73073886      0.01136436
C       0.27948444     -0.42087901      0.04664743
O      -1.01919036      0.04998676     -0.40343312
C      -2.07312887     -0.72858561     -0.07689282
O      -2.03592312     -1.74392113      0.55357474
O      -3.20727192     -0.19884004     -0.56532748
H       2.68971493     -0.13488237     -1.23162313
H       3.05738301      1.56205234     -0.60854900
H       0.93287964      1.60023334      0.59096163
H       0.16064055     -0.81905142      1.05512514
H       0.60441388     -1.23184004     -0.60614831
H      -2.99321412      0.61432389     -1.04092384
