14
b3lypvtz=-224563.82639254
C       2.05636904     -0.05671360      0.08015888
N       0.77274992     -0.69046908     -0.16829988
C      -0.42158772     -0.14259741      0.19100841
N      -1.54324735     -0.77977388      0.25994988
O      -1.32678081     -2.15203136     -0.07926981
N      -0.40405451      1.21618101      0.54874081
C      -1.36329876      1.95344640      0.17409317
H       2.82377145     -0.62277576     -0.44599470
H       2.31610491     -0.01821982      1.14278153
H       2.06091017      0.96030933     -0.30397783
H       0.75051342     -1.69625401     -0.21265429
H      -2.16126014     -2.55473472      0.17517347
H      -2.17809104      1.59467156     -0.45658620
H      -1.38209858      2.98896134      0.50404073
