15
b3lypvtz=-191193.26468292
N       2.11750094      0.16042057      1.22240278
C       1.11356050      0.15074025      0.47940306
C      -0.07119269      1.05263394      0.20833337
C       0.20688674      0.59890637     -1.25302741
N       0.67905236     -0.72017324     -0.64621316
C      -0.62119511     -1.20401495     -0.06610891
C      -1.22322677      0.09755172      0.57885199
H       2.71906510     -0.64023733      1.02209816
H      -0.11755834      2.08762147      0.53337927
H      -0.64464594      0.50155103     -1.92568813
H       1.03570526      1.10865521     -1.73699254
H      -1.23747166     -1.61458096     -0.86348682
H      -0.42415854     -1.98820325      0.66170253
H      -2.16937021      0.39973244      0.13024662
H      -1.36305164      0.00929672      1.65509918
