13
b3lypvtz=-213731.06485162
C      -1.15094749     -1.61570835     -0.21190362
C      -0.54543806     -0.42115762     -0.22716187
C       0.89457708     -0.22915640     -0.29824570
C       1.50015535      0.95983534     -0.39940973
O       2.83814940      1.16854493     -0.45881937
N      -1.31403308      0.79240271     -0.28528594
N      -2.35252747      0.78838518      0.38992885
H      -2.22735333     -1.68567525     -0.18308770
H      -0.57731689     -2.53097910     -0.24951374
H       1.49731149     -1.13137979     -0.25867868
H       0.95146494      1.88840782     -0.45546066
H       3.30382282      0.32524254     -0.40532961
H      -2.81786476      1.69123800      0.21646776
