14
b3lypvtz=-226953.89100279362
C      -0.96494000      0.55067747      0.47226722
C      -1.48914963     -0.29780182     -0.66947797
C      -0.04064128      0.03384338     -0.60873479
N       0.89483749     -1.02078365     -0.29582136
C       1.89289046     -1.05247880      0.60675075
O       1.96476199      0.04652336      1.36127481
O       0.38321708      0.92500540     -1.60475133
H      -0.93022098      0.10135777      1.45496019
H      -1.19456235      1.60648912      0.44678725
H      -1.78607923     -1.31275505     -0.44766220
H      -2.06022407      0.20172677     -1.43815717
H       0.86898155     -1.81920691     -0.91107861
H       1.25487126      0.69433965      1.18660819
H       1.20625769      1.34306329     -1.32679929
