18
b3lypvtz=-205198.56728662
C      -2.68811959     -0.29225905     -0.37789985
N      -1.46794077     -0.62520290      0.35006484
C      -0.26476550     -0.08701714     -0.25315547
C       0.00421985      1.43370226     -0.11500003
C       1.50269746      1.09588506      0.10573903
C       1.07140013     -0.32913028      0.48484148
O       1.93218225     -1.36084574      0.03867143
H      -3.54152200     -0.77774072      0.09618285
H      -2.66918762     -0.58421311     -1.43944510
H      -2.85639727      0.78507828     -0.33494880
H      -1.38437346     -1.63364458      0.41690257
H      -0.13543745     -0.38456437     -1.30614431
H      -0.24860505      2.07202654     -0.95889694
H      -0.46377862      1.82527724      0.78812477
H       2.05700055      1.08080262     -0.83264559
H       2.06243465      1.66998535      0.84161480
H       0.88106761     -0.40818328      1.55989676
H       1.76524283     -2.15789917      0.54920856
