16
b3lypvtz=-181145.01413711
C      -3.61667591      0.22766302      0.00011320
N      -2.53100981     -0.43474345      0.00008371
C      -1.32703083      0.25755437      0.00006462
C      -0.15150985     -0.39376902      0.00004394
C       1.13742182      0.25400752      0.00002238
C       2.30671874     -0.39910007     -0.00000151
C       3.65395771      0.24485423     -0.00002652
H      -4.56377493     -0.30312760     -0.00006386
H      -3.65149883      1.32341586     -0.00008227
H      -1.35652652      1.35035496      0.00007786
H      -0.17901674     -1.47828005      0.00004510
H       1.14169863      1.34123469      0.00002370
H       2.29044015     -1.48589933     -0.00000498
H       4.23567747     -0.05824108      0.87572879
H       3.58110450      1.33273082     -0.00002322
H       4.23564440     -0.05823789     -0.87580493
