17
b3lypvtz=-171076.31520363
C      -3.15140113     -0.21569592     -0.00000026
C      -1.84000407     -0.47822366      0.00000009
C      -0.81998662      0.54869848     -0.00000006
C       0.52536824      0.39263341      0.00000012
C       1.41419310      1.60776064      0.00000026
C       1.16291695     -0.91943772      0.00000025
C       2.47986440     -1.14890330      0.00000095
H      -3.52498316      0.80140930     -0.00000083
H      -3.88770420     -1.00730222      0.00000004
H      -1.52608748     -1.51513106      0.00000059
H      -1.20125322      1.56582562     -0.00000026
H       2.06545794      1.62258532      0.87781377
H       2.06545909      1.62258472     -0.87781239
H       0.82580316      2.52376744     -0.00000041
H       0.50551591     -1.77978998     -0.00000035
H       2.86678338     -2.15870212      0.00000094
H       3.21092272     -0.35195894      0.00000155
