16
b3lypvtz=-204429.05233094
C      -2.17811727      0.83647583      0.01120400
C      -1.10807261      0.44627055     -0.67032432
C       0.15410101     -0.09447612     -0.10228378
C       0.24324987     -1.54459768      0.21761289
N       0.23760168     -0.53407907      1.29389744
C       1.41197998      0.64125021     -0.56016657
O       2.58177759      0.13753865      0.04796582
H      -3.05725311      1.21422565     -0.49268885
H      -2.22281156      0.80223969      1.09325821
H      -1.11447560      0.53165720     -1.75379486
H       1.18540897     -2.05972155      0.08528230
H      -0.64890878     -2.14175732      0.07765758
H      -0.66538095     -0.49964182      1.75238032
H       1.28267329      1.71020824     -0.34366480
H       1.53466743      0.53324532     -1.64012037
H       2.36356008      0.02116220      0.98378500
