15
b3lypvtz=-240223.17969989
C       2.29795979     -0.56871322      0.44499424
O       1.27862058     -0.43715972     -0.55718622
C       0.21409060      0.33150370     -0.19188713
O       0.46856265      1.68660153     -0.02933878
C      -1.02190450     -0.13436718     -0.00342186
C      -1.42632860     -1.56595724     -0.04965027
O      -2.06808121      0.71878506      0.25149884
H       3.10329120     -1.14288120     -0.00715698
H       2.67166196      0.40849851      0.75472874
H       1.90840882     -1.09999617      1.31693406
H       0.89868035      2.01522527     -0.82931804
H      -1.86865365     -1.86978712      0.90226956
H      -0.57408598     -2.20364982     -0.26817446
H      -2.18517782     -1.71678144     -0.82134978
H      -1.70905218      1.61484205      0.28682709
