14
b3lypvtz=-201303.03653994
N      -2.81527035     -1.16552424     -0.30553888
C      -2.19563427     -0.22231024     -0.08240338
C      -1.41286693      0.98539129      0.16319223
C       0.07169581      0.81388642     -0.19451560
N       0.70006658     -0.10301944      0.73187762
C       1.87933502     -0.50969430      0.48905962
N       2.70762027     -0.16260068     -0.55007397
H      -1.85160385      1.80005898     -0.41737282
H      -1.49360714      1.24496104      1.21990777
H       0.14345517      0.47770401     -1.23898340
H       0.54303758      1.80379696     -0.14401326
H       2.34097870     -1.19463438      1.19744915
H       2.32619860      0.30143593     -1.35661233
H       3.51105780     -0.74021233     -0.72621476
