13
b3lypvtz=-213761.42559857
N       3.39494634     -0.24738221     -0.43647124
C       2.19248546      0.04650100     -0.68513556
N       1.13455274     -0.10566175      0.23711537
C      -0.01963759      0.25915643     -0.14865854
C      -1.20736675      0.15884781      0.75204493
C      -2.43471176     -0.44416866      0.10283450
O      -2.51180976     -0.76086622     -1.05467674
H       3.46711849     -0.60543006      0.51881596
H       1.93439363      0.44523733     -1.67199082
H      -0.19679657      0.66058482     -1.15203926
H      -1.50046179      1.16122878      1.09626496
H      -0.95580096     -0.40435979      1.65385094
H      -3.29681146     -0.57288749      0.78804552
