17
b3lypvtz=-191988.05002243
C      -1.97321904      1.27593209     -0.00003212
C      -1.34803039     -0.09103981     -0.00000073
C      -2.31433904     -1.24240330      0.00000697
C      -0.02929188     -0.31882359      0.00002525
N       0.98152115      0.63888317      0.00003872
C       2.34092131      0.39334658      0.00001052
N       2.98483568     -0.70216365     -0.00004292
H      -1.25373123      2.09475759     -0.00008810
H      -2.61416487      1.40840758     -0.87703060
H      -2.61411324      1.40847653      0.87699408
H      -2.96889867     -1.21028388      0.87711621
H      -1.80126972     -2.20403294      0.00003049
H      -2.96887661     -1.21031348     -0.87711969
H       0.33361928     -1.33688454      0.00004528
H       0.71097164      1.60669511      0.00006350
H       2.91045539      1.32221237      0.00004033
H       2.38053623     -1.52142984     -0.00007421
