14
b3lypvtz=-227014.9792446
C       0.35588967      1.65775071      0.18466730
C       0.18546434      0.33380501     -0.00062829
N       1.17341655     -0.58535464     -0.20444403
C       2.56826814     -0.26897468     -0.01815782
C      -1.17724901     -0.31333220      0.02224152
O      -1.32203155     -1.49136001      0.22018811
O      -2.23979273      0.48409626     -0.19674769
H       1.33370149      2.11411070      0.19487286
H      -0.47728311      2.31230835      0.38917451
H       0.87343213     -1.54003882     -0.08582540
H       2.77369912      0.13330879      0.98164678
H       2.90139473      0.47014542     -0.75139184
H       3.15939033     -1.17096236     -0.15988214
H      -1.93449610      1.36277346     -0.45639088
