13
b3lypvtz=-213758.75390796
C      -1.53054773     -0.26312406      0.26509705
C      -0.68472491      0.79525291     -0.42602892
C      -0.56501897     -0.63930810     -0.82333191
O       0.72252453     -1.08279429     -0.43054840
C       1.36035844     -0.06650297      0.25123870
N       2.44614640     -0.16601301      0.88480373
N       0.60321297      1.08803683      0.12577956
H      -1.28563735     -0.53296084      1.28362876
H      -2.58172413     -0.29821381      0.01217257
H      -1.13558115      1.54849294     -1.05591866
H      -0.88370556     -1.05091720     -1.76814477
H       2.81173332     -1.11112911      0.83357689
H       0.72296416      1.77918070      0.84767538
