14
b3lypvtz=-226971.56844668
N       1.63182000     -0.32462950      2.18837570
C       0.98774209      0.47047238      1.45201890
C       0.65759119      0.27037206     -0.02183348
O       1.09052185     -0.98427068     -0.49828557
C      -0.83003625      0.47429702     -0.27374594
C      -1.48559069     -0.04790026     -1.47049336
O      -1.61403375     -0.72230996     -0.20305437
H       1.90947228     -1.14531583      1.64156956
H       0.63118594      1.41027064      1.88376133
H       1.20409821      1.03607721     -0.58575987
H       0.38026828     -1.61228532     -0.30075231
H      -1.27265841      1.33095932      0.22740773
H      -0.89493156     -0.57610893     -2.20975855
H      -2.39534916      0.42017185     -1.82944978
