15
b3lypvtz=-214535.01799159
C      -0.64455608      1.95804118     -0.00041474
C      -0.69589916      0.45966208     -0.00259976
C      -1.85900931     -0.21586760      0.00342020
O      -1.93874874     -1.56852936      0.00283882
N       0.45864478     -0.33167719     -0.01457102
C       1.62932584      0.17249023     -0.00529544
N       2.75841604     -0.60416233      0.05686051
H      -1.65163993      2.37357032      0.00437611
H      -0.12818309      2.34994060     -0.88313564
H      -0.12033869      2.34770868      0.87853360
H      -2.82393384      0.26986036      0.00948011
H      -1.01584278     -1.87540182     -0.00038142
H       1.83428527      1.24441298     -0.00001184
H       2.63214498     -1.58729306     -0.12632825
H       3.61958471     -0.20671706     -0.27599124
