16
b3lypvtz=-204426.19686163
C       2.25863131      0.42248148     -0.16535002
O       1.28035066     -0.39831240     -0.77882041
C       0.13693953     -0.61921389      0.00029981
C      -0.85675102     -1.60901302     -0.65378247
N      -1.92638071     -0.63258264     -0.36305625
C      -1.01900614      0.39224686     -0.05710550
C      -1.14627484      1.70956009      0.06971477
H       2.54195106      0.03276760      0.81984054
H       1.91348038      1.45387093     -0.05092502
H       3.13157005      0.41420267     -0.81524919
H       0.41279651     -0.89056320      1.02596777
H      -0.62764110     -1.73266920     -1.71408064
H      -0.98799551     -2.58142262     -0.17932739
H      -2.71556023     -0.49046592     -0.97639172
H      -0.30420725      2.32262790      0.35057615
H      -2.09190271      2.20648535     -0.10414323
