19
b3lypvtz=-192743.11340355
C      -2.95965735      0.05442521      0.16871278
C      -1.68053338     -0.64263218     -0.29501341
C      -0.39277333     -0.01932133      0.25257716
N      -0.26615208      1.36694819     -0.21017242
C       0.84017137     -0.80863026     -0.22184535
C       2.10826925     -0.33763764      0.43373209
N       3.10652291      0.22674127     -0.10518787
H      -3.02601282      1.07391183     -0.21476733
H      -3.01689345      0.09674192      1.25932829
H      -3.84273367     -0.47846651     -0.18642184
H      -1.63144713     -0.63172730     -1.38714423
H      -1.71021610     -1.69095936      0.01493602
H      -0.43063133     -0.09206338      1.35228747
H       0.61177850      1.76967096      0.09733012
H      -1.00145442      1.94437822      0.17794230
H       0.69058100     -1.86434806      0.02509659
H       0.92458027     -0.71952250     -1.30783046
H       2.15552480     -0.48766256      1.51719374
H       2.96366999      0.32147748     -1.11407965
