19
b3lypvtz=-192735.5240718
C       3.09455276      0.58949097     -0.09132506
C       2.26235629     -0.68292164     -0.24384156
C       0.88067793     -0.60293088      0.40613252
N       0.04986407      0.41501463     -0.23430812
C      -1.24642858      0.67833431      0.38119318
C      -2.31090375     -0.35946696      0.10122778
N      -3.48468034     -0.15989611     -0.33191687
H       4.05891354      0.49137551     -0.59201762
H       3.28820072      0.80395658      0.96225090
H       2.57538903      1.44906474     -0.51336370
H       2.14022073     -0.92221912     -1.30583465
H       2.79494413     -1.53119571      0.19408453
H       0.99032562     -0.31935385      1.45780322
H       0.42603146     -1.60482400      0.39876708
H      -0.06212480      0.21104493     -1.22078142
H      -1.09136476      0.74918337      1.46276161
H      -1.61385609      1.65484082      0.04959673
H      -2.01775763     -1.39832136      0.27305968
H      -3.65454733      0.84227776     -0.46059522
