20
b3lypvtz=-182678.63376847
C      -2.42449811     -0.46599644      0.60212104
C      -1.46256978     -0.30413060     -0.58489935
C      -0.16881354      0.38622134     -0.22789453
N      -0.30074657      1.79064405     -0.16019962
C       1.01423921     -0.22283792     -0.03571603
C       1.21852841     -1.71276410     -0.07691097
C       2.25682945      0.57797772      0.26971291
H      -2.65038089      0.49360017      1.07163641
H      -3.37010695     -0.90692242      0.28165875
H      -1.99148818     -1.11103795      1.36777713
H      -1.26469960     -1.27877947     -1.02506492
H      -1.95310981      0.28425257     -1.36790648
H      -1.25070404      2.10738879     -0.04831469
H       0.30442799      2.24935834      0.50209691
H       1.92513870     -1.99412426     -0.86596472
H       1.65320327     -2.07043309      0.86322486
H       0.30154813     -2.27519535     -0.23799853
H       2.24388120      1.55927071     -0.20848308
H       3.14757569      0.05665954     -0.08748226
H       2.39999842      0.73517836      1.34631319
