14
b3lypvtz=-180352.32363131
C      -1.77997469      0.34513809     -0.15431189
C      -0.34087312      0.59421235     -0.53248692
C       0.67959499      1.31407411     -0.02279735
C       1.78278710      0.38830246      0.24350535
C       1.38448775     -0.89314097      0.06206593
C      -0.00056657     -0.87016848     -0.49176566
N      -1.30397759     -0.99709585      0.34889270
H      -2.22029132      0.99383388      0.60224614
H      -2.47855735      0.21454450     -0.98050699
H       0.64673038      2.34000975      0.31515927
H       2.76835733      0.69518519      0.56722375
H       2.01864669     -1.76629386      0.11075696
H      -0.12211132     -1.47436831     -1.39090922
H      -1.03425226     -0.88423289      1.32292794
