18
b3lypvtz=-181883.53618653
N       2.65355632      0.25175577      0.13948172
C       1.53917373     -0.58935802     -0.30707649
C       0.25302973     -0.20918681      0.40819541
C      -0.30432573      1.19762262      0.01805632
C      -1.54398967      0.52686568     -0.57821915
C      -2.24139920     -0.29759941      0.46227644
C      -1.00747892     -0.85072030     -0.18544881
H       3.49038448      0.04954676     -0.39386715
H       2.87418808      0.05762651      1.10982729
H       1.40908894     -0.43038107     -1.38146480
H       1.71480061     -1.66708488     -0.16752118
H       0.37568527     -0.37617312      1.48430571
H       0.33604432      1.68177748     -0.71682085
H      -0.49024720      1.90055204      0.83253269
H      -2.04347855      0.82113422     -1.49067148
H      -2.22091716      0.00785773      1.50380391
H      -3.17320468     -0.75172764      0.15110616
H      -1.02736438     -1.77491755     -0.74809874
