16
b3lypvtz=-204462.31230343
O       0.08524363      2.56401942      0.76067954
C       0.04307329      1.41246454      0.39658639
C      -1.17490450      0.52507647      0.59920782
C      -1.22657761     -0.58280344     -0.45975254
N      -0.01274452     -1.41048337     -0.51972422
C       1.21983300     -0.77676841     -0.03152290
C       1.20371008      0.72651534     -0.30526311
H      -2.06986246      1.14811475      0.59133311
H      -1.09743626      0.08898177      1.60187257
H      -2.08260980     -1.23465686     -0.28427053
H      -1.39597843     -0.11860359     -1.43731296
H      -0.16110961     -2.28764549     -0.04303409
H       1.37234750     -0.92935719      1.04683333
H       2.07628470     -1.23216387     -0.53365805
H       2.13357739      1.20515081     -0.00115142
H       1.08695359      0.90205913     -1.38072294
