19
b3lypvtz=-192741.18703104
C      -2.18153644      0.70686032      0.01564622
C      -0.96737167     -0.16517822      0.32645873
N      -1.29061071     -1.54354982     -0.06756017
C       0.30757386      0.31944667     -0.42292116
C       0.74741808      1.71437248      0.02110352
C       1.41572003     -0.70838396     -0.30128669
N       2.53651206     -0.61110664      0.28156525
H      -2.41250831      0.66741039     -1.05067801
H      -3.05556738      0.34623662      0.56301642
H      -2.02604317      1.74518499      0.30261655
H      -0.75190850     -0.08260002      1.40269924
H      -0.64553460     -2.20655074      0.34454584
H      -2.21312354     -1.79157918      0.26933598
H       0.04005831      0.34351459     -1.48610162
H      -0.00737447      2.46227528     -0.21467145
H       1.66788523      2.01243304     -0.48283880
H       0.92605203      1.75681453      1.09845347
H       1.20364905     -1.65918716     -0.79326437
H       2.65749515      0.31200784      0.70331805
