12
b3lypvtz=-226230.59700816
C      -0.37879892     -1.32079704      0.12595507
C       0.31120552     -0.11652548     -0.52247795
C      -0.87523672      0.66421033      0.03023144
N      -1.21246051      1.86559340      0.00243485
O      -1.45906534     -0.44124313      0.60429621
C       1.65554894      0.31090995      0.01926858
O       2.32956113     -0.36111031      0.75404670
H       0.15855053     -1.76880407      0.95720306
H      -0.77107563     -2.07611236     -0.55049270
H       0.34436079     -0.10690993     -1.61322288
H      -2.08406118      2.03570264      0.50223897
H       1.98147138      1.31508598     -0.30948136
