15
b3lypvtz=-216896.22509776
C       2.94201971      0.06590678      0.46006025
C       1.72496814      0.08993703     -0.06610165
O       0.69468691     -0.64754901      0.43942563
C      -0.51381554     -0.57978301     -0.27406989
C      -1.75792737     -0.84118501      0.51558922
C      -1.47949148      0.54070730      0.00858265
O      -2.32333063      1.00396327     -1.00907837
H       3.72352230      0.67122814      0.02794978
H       3.17483966     -0.54782024      1.31867326
H       1.47678324      0.70053290     -0.92878691
H      -0.46665430     -0.95928671     -1.28974542
H      -2.54705673     -1.39590007      0.02834083
H      -1.64143004     -1.01880733      1.57507651
H      -1.16725035      1.27869254      0.74143096
H      -1.83986351      1.63936344     -1.54734687
