18
b3lypvtz=-181893.66252026
C       2.06873546     -0.45185313      0.33344706
N       0.87632540     -0.31809007     -0.50060582
C       0.44143591      1.08570865     -0.65532719
C      -0.62940944      1.36261655      0.43575686
C      -1.22879657     -0.00637861      0.69553373
C      -1.60885219     -0.81885472     -0.52370624
C      -0.25698092     -1.00431063      0.09613181
H       1.95143003     -0.04755330      1.35185722
H       2.90453229      0.05940594     -0.14453740
H       2.33296727     -1.50651921      0.42044181
H       1.29842780      1.75453511     -0.59188350
H       0.00531363      1.21786185     -1.64622748
H      -0.17440161      1.74351557      1.35278848
H      -1.35637580      2.10351551      0.09799634
H      -1.74087582     -0.19031605      1.62985901
H      -1.68992967     -0.32930555     -1.48534204
H      -2.32092769     -1.61974561     -0.37775374
H      -0.02345110     -1.94831932      0.56778208
