13
b3lypvtz=-239663.92538529
C      -0.69067154     -1.12696446      0.54235198
C       0.23672378     -0.03573108      0.08930327
N      -0.08700250      0.87671304     -0.75474650
N      -1.31425433      0.85314779     -1.31382175
C       1.63266250      0.05315520      0.58839034
N       2.55496230      0.84205253      0.29057353
F       1.89228842     -0.89843036      1.51721097
H      -0.19796256     -1.81377915      1.22145172
H      -1.56314083     -0.71378050      1.06072472
H      -1.06098171     -1.69178434     -0.31813297
H      -1.55759636      1.74314692     -1.71646882
H      -2.06572994      0.41513116     -0.79328119
H       2.22070274      1.49712326     -0.41355530
