17
b3lypvtz=-171070.75747772
C       3.62020771     -0.03864688      0.28951361
C       2.42138478     -0.45388756     -0.12536546
C       1.19834113      0.32109828     -0.01891541
C       0.00105884     -0.09784290     -0.44077204
C      -1.27798866      0.68392775     -0.33318249
C      -2.30547968     -0.01366230      0.52028597
C      -3.49263117     -0.43002343      0.09884791
H       3.75515822      0.93506850      0.74529067
H       4.50119888     -0.65697634      0.18701440
H       2.32918528     -1.43744653     -0.57725664
H       1.28574788      1.30593953      0.43369710
H      -0.08339986     -1.08516791     -0.88734803
H      -1.06002598      1.67036579      0.08762250
H      -1.69888158      0.84564970     -1.33092209
H      -2.01572311     -0.18701602      1.55271216
H      -4.18628528     -0.93054676      0.76163212
H      -3.81659342     -0.28083190     -0.92490229
