12
b3lypvtz=-202889.07068223
C      -1.96304646      0.15802093      0.62070238
C      -1.06912634     -0.43013328     -0.42781830
N      -1.84791377      0.80759341     -0.67683766
C       0.34681036     -0.35368624     -0.25608098
C       1.54391239     -0.25845640     -0.12451693
C       2.97205172     -0.19104466      0.02003797
O       3.57125268      0.77281936      0.44060917
H      -2.91044717     -0.32976388      0.81081334
H      -1.48791628      0.60904975      1.48217862
H      -1.42938845     -1.28715367     -0.98312479
H      -1.23055897      1.61161215     -0.61676532
H       3.50437028     -1.10885743     -0.28919752
