13
b3lypvtz=-213777.89348029
N       2.99298431     -0.61147225     -0.02393974
C       2.31592779      0.46221500     -0.00553130
C       0.85223010      0.62533429     -0.11971020
C      -0.04311602     -0.30847278      0.20827201
C      -1.52063399     -0.20916627      0.03728333
N      -2.06256192      1.04646201      0.02159241
O      -2.18990837     -1.21540289     -0.11553211
H       2.39223069     -1.42792418     -0.16082154
H       2.87494389      1.39453524      0.09752723
H       0.51915303      1.58824920     -0.49412115
H       0.27359668     -1.27682578      0.57757739
H      -1.56797259      1.82590449      0.41705426
H      -3.06721460      1.10080393     -0.01022559
