14
b3lypvtz=-227006.85951047
C       3.32808491      0.21905446     -0.00021732
C       2.02189552     -0.50110571     -0.08625032
C       0.82731759      0.07270840      0.06939209
N      -0.36227058     -0.64166806     -0.00562113
C      -1.48576965     -0.06731209     -0.01007141
O      -2.61806785     -0.78641600     -0.02997852
O      -1.77547120      1.26544365      0.00102448
H       3.96339172     -0.20436920      0.78311845
H       3.19164709      1.27990914      0.21578838
H       3.89121187      0.13606400     -0.93433384
H       2.04294974     -1.56662105     -0.28722977
H       0.80492857      1.14519344      0.29372178
H      -3.36648922     -0.17872004     -0.06603961
H      -0.95754851      1.77263908     -0.05468225
