16
b3lypvtz=-204416.56486103
C       2.65865862      0.82462645      0.00001296
O       2.28558224     -0.54369509     -0.00001317
C       0.96115270     -0.82788001     -0.00001937
C      -0.06561789      0.02350489     -0.00000501
N      -1.39053315     -0.49227569     -0.00001313
C      -2.39456382      0.27377669      0.74150539
C      -2.39456992      0.27381379     -0.74148426
H       3.74545220      0.84698107      0.00001574
H       2.28203750      1.33585464      0.89097247
H       2.28204154      1.33588777     -0.89092921
H       0.78627706     -1.89510793     -0.00003834
H       0.06733578      1.10366819      0.00001341
H      -2.06792263      1.18005541      1.24109393
H      -3.11642486     -0.31637996      1.29210602
H      -2.06793354      1.18011780     -1.24103005
H      -3.11643583     -0.31631501     -1.29210836
