15
b3lypvtz=-191201.93937389
C      -1.22759644     -0.91066007      0.07814859
C      -1.49284171      0.30230229      0.58584757
N      -0.75566169      1.30978323     -0.03127258
C       0.21073228      0.70794440     -0.91769683
C      -0.10271164     -0.79305035     -0.89128173
C       1.22165456     -0.28008090     -0.35598764
N       1.57129035     -0.38662484      1.03042184
H      -1.76212477     -1.81978623      0.29751004
H      -2.20940225      0.56589828      1.34978869
H      -0.48702469      2.12022598      0.50471770
H       0.43647384      1.25743663     -1.82248624
H      -0.08998729     -1.40124670     -1.78504175
H       2.04906024     -0.46590128     -1.03154848
H       1.85854550      0.50523962      1.41559446
H       0.77959371     -0.71148007      1.57328635
