18
b3lypvtz=-202800.23530808
C      -2.98449094     -0.18548615      0.14104627
N      -1.58013858     -0.50801517     -0.08364026
N      -0.79621834      0.68308173     -0.02714018
C       0.47178012      0.46315978     -0.05121678
C       1.39191388      1.64585712     -0.00668006
N       1.00904349     -0.80212060     -0.16472885
C       2.39665384     -1.10568492      0.14074656
H      -3.57870637     -1.08743590     -0.01175939
H      -3.35317712      0.60829376     -0.51893568
H      -3.11595554      0.14190464      1.17168589
H      -1.47688577     -0.91165182     -1.01364594
H       0.79008995      2.54745860      0.06293871
H       2.06611822      1.59916462      0.85147106
H       2.00992151      1.70317430     -0.90597126
H       0.33605279     -1.50549028      0.11605461
H       2.58621371     -2.14945210     -0.10706184
H       2.66054856     -0.95314400      1.19396259
H       3.06563759     -0.49921661     -0.46821044
