19
b3lypvtz=-192729.96238003
C       2.88283199      1.00647136      0.06256541
C       2.59718630     -0.48566098     -0.07627374
C       1.14447129     -0.85888568     -0.05144148
N       0.22191340      0.00146603      0.10285947
N      -1.07716219     -0.42496734      0.19536254
C      -2.06001352      0.56172913     -0.23860044
C      -3.46923958      0.08354351      0.08170944
H       2.48847769      1.39513802      1.00103631
H       3.95748153      1.19181636      0.03600338
H       2.41560357      1.57211278     -0.74341957
H       3.10706359     -1.04028318      0.72096681
H       3.03362580     -0.86722938     -1.00700894
H       0.90764380     -1.92589985     -0.15750389
H      -1.23330022     -1.34449770     -0.21504204
H      -1.83707186      1.48553140      0.29536072
H      -1.97129471      0.78297003     -1.31150176
H      -4.20342838      0.82770141     -0.22893690
H      -3.70327534     -0.84636486     -0.44270538
H      -3.58462718     -0.09399604      1.15137607
