12
b3lypvtz=-200534.5894234
C       2.31914746      0.01095399     -0.00008631
C       0.82274793      0.00822793     -0.00009602
N       0.19486491      1.19659048     -0.00008863
C      -1.12392236      1.14280462     -0.00005639
C      -1.78592354     -0.08288257     -0.00004940
N      -1.11355357     -1.22511275     -0.00006426
N       0.21355879     -1.18209047     -0.00016445
H       2.69219008      0.54144319      0.87734071
H       2.69894656     -1.00689009     -0.00028970
H       2.69221023      0.54182868     -0.87727134
H      -1.66774112      2.08193790     -0.00005852
H      -2.86580037     -0.15772491     -0.00002869
