17
b3lypvtz=-191970.12518293
C      -0.93571986      0.50011316     -1.03477035
C       0.09858340     -0.42733429     -0.32739319
C      -0.69730857     -0.26720126      1.00845055
C      -1.80937513      0.39446659      0.21322334
N      -3.00546854      0.63419291      0.52328536
C       1.54966606      0.01484627     -0.34315252
N       2.38627483     -0.91546954      0.41907591
H      -0.55896433      1.51573996     -1.18499022
H      -1.37506050      0.14933363     -1.96895439
H       0.03186207     -1.45063294     -0.69637967
H      -0.22451581      0.43363039      1.70285074
H      -0.97113627     -1.16865850      1.55485274
H      -3.51251120      1.04921441     -0.26083648
H       1.60500321      1.05618803      0.01342455
H       1.91110208      0.01765531     -1.37520781
H       3.36250088     -0.65336659      0.35319264
H       2.14506767     -0.88271755      1.40332880
