13
b3lypvtz=-242079.01735749
C      -2.64943203     -0.31101589      0.00012163
C      -1.18827490     -0.62817708     -0.00008418
C      -0.18429937      0.25380819      0.00003874
O      -0.30824430      1.61767794      0.00035967
C       1.24002833     -0.13551082     -0.00013640
N       2.25763593      0.59048156      0.00006277
F       1.40851950     -1.47284042     -0.00035672
H      -3.13972260     -0.74076401      0.87737038
H      -2.87172625      0.75817843      0.00041491
H      -3.13987472     -0.74031589     -0.87726175
H      -0.91142980     -1.67190845     -0.00035769
H      -1.23976042      1.85864285      0.00046774
H       1.98570563      1.57027260      0.00025491
