19
b3lypvtz=-192733.3034601
C       2.46361546     -0.65631848     -0.14964307
C       1.03384118     -1.10458918     -0.14388124
C      -0.02724153     -0.38090167      0.23600617
C       0.07021312      1.06626786      0.67960543
N       0.35840585      1.97469257     -0.44174270
N      -1.31465937     -0.95215879      0.34713637
C      -2.42231326     -0.30725650     -0.35243527
H       2.93503817     -0.88550529     -1.10928864
H       2.55717162      0.41643588      0.00442311
H       3.05204725     -1.17284781      0.61692774
H       0.85689355     -2.13184033     -0.45439848
H      -0.84429269      1.31673085      1.22897056
H       0.89010691      1.16132448      1.39463845
H      -0.33152205      1.86353380     -1.17557117
H       0.31094007      2.93892813     -0.13212784
H      -1.28345711     -1.94024546      0.13492329
H      -3.34299596     -0.84968396     -0.13807873
H      -2.55573815      0.71246213      0.00886158
H      -2.29040005     -0.26657323     -1.44329655
