17
b3lypvtz=-215264.36085752
C      -3.04990054     -0.27192313      0.13223712
C      -1.58820187     -0.61809697     -0.10935127
N      -0.73754591      0.52137851      0.22587589
N       0.60320651      0.27144749     -0.05116166
C       1.47878550      0.86729209      0.63937821
O       2.80395080      0.76104765      0.41337369
C       3.19357038     -0.08247273     -0.67255356
H      -3.69031662     -1.11046668     -0.14306178
H      -3.34432539      0.59803460     -0.45534586
H      -3.23802952     -0.04817180      1.18537031
H      -1.31204059     -1.51803191      0.45818306
H      -1.41744109     -0.84306976     -1.16262568
H      -0.88250028      0.80738905      1.19278361
H       1.27727454      1.53700100      1.47597781
H       4.27875447     -0.03771734     -0.70598171
H       2.76608168      0.27357999     -1.61062318
H       2.85867791     -1.10722005     -0.50533200
