15
b3lypvtz=-214526.53142168
N      -0.81798809      1.54500903     -0.51553409
C      -0.38837505      0.57432632      0.17265574
C      -1.17434045     -0.69312427      0.47917434
N      -2.42711261     -0.74848027     -0.26218917
C       1.02933145      0.60676210      0.71279327
C       1.98096287      0.10596455     -0.35677787
O       2.60096501     -0.92312178     -0.28848195
H      -1.77755604      1.34048750     -0.81052722
H      -0.51285402     -1.55479776      0.31565249
H      -1.39567854     -0.69055738      1.55059362
H      -3.11687255     -1.30951088      0.21753497
H      -2.29429193     -1.14944520     -1.18186197
H       1.14382623     -0.01537904      1.60036419
H       1.28213818      1.64347992      0.93989978
H       2.04784054      0.76050317     -1.24755214
