18
b3lypvtz=-202812.78918104
C      -0.45590551      1.67498397      0.09047527
C      -0.00353511      0.26697541     -0.19453306
C       1.27152150     -0.16094518     -0.06731537
N       2.31571545      0.56710768      0.51574957
N       1.69794563     -1.41263916     -0.52070144
N      -0.97325239     -0.69318914     -0.65372769
C      -2.07096593     -0.97727649      0.27215821
H       0.37404253      2.38447461      0.10737822
H      -0.98548781      1.78074240      1.04382115
H      -1.14400604      2.01994920     -0.68918526
H       2.07621713      1.51215792      0.76782387
H       3.16444361      0.53692977     -0.03368173
H       0.89912096     -1.96315793     -0.80840963
H       2.26501052     -1.89991065      0.16061058
H      -1.35413581     -0.41634144     -1.55227856
H      -2.74373482     -1.70850965     -0.17967074
H      -2.66694742     -0.09848801      0.55465130
H      -1.66604650     -1.41286331      1.18683531
