16
b3lypvtz=-181122.79100205
C      -1.16241943     -0.76637092     -0.65774886
C      -1.13809095      0.73970691     -0.23370556
C      -0.87996365      0.20697506      1.21352770
C      -0.02520946     -0.83342847      0.41820326
C       1.01392404      0.09366661     -0.22666189
C       0.28742085      1.13732704     -0.65404616
N       2.34374391     -0.26298640     -0.36696004
H      -2.06654852     -1.29988737     -0.35674524
H      -0.89187403     -1.00129889     -1.68608174
H      -1.95332077      1.42121671     -0.46277826
H      -0.35575111      0.86745301      1.90336010
H      -1.75924027     -0.23750487      1.68375081
H       0.32272416     -1.77058128      0.84990046
H       0.58172554      2.02405710     -1.19114720
H       2.96229825      0.49113067     -0.62545241
H       2.72058144     -0.80947490      0.39258505
