17
b3lypvtz=-215254.02168511858
C      -2.02235831     -0.94311850     -0.14331209
C      -1.04858893      0.18752587     -0.11775746
N      -1.32093428      1.27858695     -0.77867783
O      -0.61131393      2.33227700     -0.87674843
C       0.23997808      0.12070188      0.63187695
C       1.44163259     -0.20671478     -0.27001606
N       2.66567775     -0.24574469      0.53554517
H      -1.56013949     -1.85373529     -0.53521652
H      -2.89104813     -0.71513186     -0.76444768
H      -2.37854441     -1.17807104      0.86373434
H      -2.22023453      1.29172315     -1.27464782
H       0.41494885      1.09745288      1.09136249
H       0.17639693     -0.62734740      1.42312692
H       1.46712440      0.52217792     -1.08736932
H       1.30304360     -1.19596650     -0.71299316
H       2.89645723      0.68853839      0.85614667
H       3.44790256     -0.55315400     -0.03036734
