14
b3lypvtz=-224603.38879409
C       2.31295233      1.12122637      0.00001120
C       1.41375293     -0.09619303      0.00016126
O       1.84810176     -1.22822543      0.00054870
N       0.05703147      0.17721522     -0.00014144
C      -0.91912850     -0.79634716     -0.00031809
N      -2.17719618     -0.58884225     -0.00053910
N      -2.48431309      0.84338819     -0.00049878
H       2.95686094      1.07710693      0.87815666
H       1.77083135      2.06565796     -0.00027823
H       2.95711269      1.07671824     -0.87792995
H      -0.29578325      1.12414398     -0.00058430
H      -0.55422158     -1.81520841     -0.00029825
H      -3.09956600      0.97150838     -0.79993312
H      -3.09568688      0.97242300      0.80178844
