14
b3lypvtz=-224566.96580989
C       3.26848492     -0.02861117      0.18266949
N       1.94311010     -0.45449193     -0.21725961
N       0.95774892      0.44700599     -0.09522255
N      -0.18975316     -0.05883715     -0.04708692
C      -1.23151956      0.86014632      0.00268678
C      -2.48922391      0.39291814      0.04801532
O      -2.81785004     -0.91790859      0.04395160
H       4.00205773     -0.71327063     -0.24052975
H       3.40051909      0.00431192      1.26976431
H       3.44909585      0.96664115     -0.21818463
H       1.66527981     -1.41338198     -0.02790928
H      -1.01807377      1.92148747      0.00308431
H      -3.34993417      1.04399034      0.09151919
H      -1.98558981     -1.41392589     -0.00165329
