12
b3lypvtz=-223845.6563077
C      -2.41974402      0.27298817      0.37006030
N      -1.38087524      0.47741365     -0.31833287
C      -0.28119091     -0.38851203     -0.19162657
O      -0.36644370     -1.59110659     -0.30273469
C       1.05005218      0.31794407      0.00597016
N       1.21510410      1.58107049     -0.06714149
N       2.05630305     -0.55018198      0.30599765
H      -3.29294121      0.90125093      0.21474530
H      -2.48515035     -0.51459605      1.12457081
H       0.33277449      2.03534414     -0.28361385
H       2.99622736     -0.19560472      0.27136453
H       1.90178523     -1.52378509      0.10776874
