14
b3lypvtz=-203680.10467597
O       3.80688525     -1.13045472     -0.38769420
C       2.80082520     -0.62837712     -0.82924935
C       1.52188741     -0.58273017     -0.08615449
N       0.51416557     -0.03276876     -0.63179604
C      -0.71239289      0.02000491      0.05793376
C      -1.57710785      1.24131591     -0.19517275
C      -1.96721806     -0.06727708     -0.79124189
H       2.75830269     -0.16087826     -1.83110773
H       1.51450758     -1.03428807      0.91149434
H      -0.75066068     -0.42044620      1.05148202
H      -2.13688437      1.62022240      0.64802161
H      -1.15767028      1.99208083     -0.84810012
H      -1.81302517     -0.20868980     -1.85062587
H      -2.80161441     -0.60791387     -0.36768929
