17
b3lypvtz=-215286.76072435
C       2.67296558      0.20695772      0.77712377
N       1.28569301      0.56697517      0.54757121
C       0.44022999     -0.33099254      0.28036464
N      -0.86730145     -0.04780064     -0.11458739
C      -1.15873839      1.35690341     -0.37005127
C      -1.95264080     -0.73622884      0.58367043
O       0.73390635     -1.67308580      0.31489678
H       2.96841644     -0.73501670      0.30688962
H       2.86576528      0.11787074      1.85045476
H       3.31294943      1.00723073      0.40276976
H      -0.37916146      1.78481966     -0.99305784
H      -2.11620970      1.42219996     -0.88812694
H      -1.21231108      1.94447910      0.55368642
H      -2.20327163     -0.24150024      1.53164938
H      -2.84374821     -0.74223005     -0.04466072
H      -1.68282231     -1.76535835      0.80695405
H       0.13627892     -2.13522333     -0.28400469
