16
b3lypvtz=-181104.50168622
C      -1.45456001      0.99633781      0.02869704
C      -0.84849579     -0.16499435     -0.80433984
C      -0.74928736     -0.96519382      0.52273214
C      -0.24946571      0.47339670      0.86119314
C       0.55655280      0.45525650     -0.47161267
C       1.80473255     -0.35427282     -0.63667640
N       2.55809825     -0.84106898      0.25882089
H      -2.44261331      0.82000937      0.45246099
H      -1.36683274      1.99994926     -0.38794814
H      -1.18378968     -0.52807930     -1.77417581
H      -0.02232547     -1.77261763      0.56694939
H      -1.69669649     -1.25870739      0.97399150
H       0.08575096      0.84656999      1.82765752
H       0.70580746      1.43723107     -0.93279224
H       2.10815541     -0.51700281     -1.67589255
H       2.19496912     -0.62681362      1.19093507
