13
b3lypvtz=-216101.78544067
C       0.63024223      1.51560065     -0.45604054
C      -0.65288252      1.38547052      0.49725815
C      -0.68471959     -0.07396972     -0.05819841
C       0.77503085     -0.03375483     -0.17562274
C       0.63715478     -1.57589426     -0.37334038
O       1.21365314     -2.53062853     -0.75814741
O      -0.62805727     -1.53684091      0.27317057
H       1.43832185      2.15500289     -0.11225766
H       0.35325896      1.76592373     -1.47684104
H      -0.36263946      1.46691657      1.54231243
H      -1.51332212      2.01647478      0.28493655
H      -1.19140823     -0.03223131     -1.02318345
H       1.14726740     -0.04196957      0.85625395
