13
b3lypvtz=-234666.49830616
N       2.49938427     -0.74252151      0.60978371
C       2.14986446      0.27611183     -0.05423214
N       0.87286038      0.63509745     -0.48703481
N      -0.08770007     -0.41443387     -0.52632460
C      -1.22293472     -0.06184097     -0.03532748
N      -1.58650578      1.15120828      0.45146044
O      -2.22455358     -0.95978307     -0.01991845
H       1.69933598     -1.36212539      0.74586289
H       2.88659030      1.03801600     -0.31119821
H       0.88594014      1.16222752     -1.35315981
H      -2.40362876      1.18317738      1.03664373
H      -0.81868165      1.76080603      0.68414367
H      -1.86748898     -1.76958568     -0.41158893
