12
b3lypvtz=-202935.86556344
C      -0.57315413      1.20055917     -0.18033726
C      -0.33746884     -0.26084806      0.08023167
C      -1.30661665     -1.14215397      0.33604021
C       1.06054028     -0.78094045      0.05616600
O       1.38895680     -1.92846668      0.24793306
C       2.11994527      0.21503346     -0.22963874
N       2.96049743      0.97035255     -0.44964007
H      -0.20578683      1.49533405     -1.16548816
H      -0.05434432      1.82570789      0.54935395
H      -1.63590231      1.42983982     -0.13063118
H      -1.07144171     -2.18219624      0.51531498
H      -2.34522500     -0.84222156      0.37069555
