17
b3lypvtz=-194391.74673007
C      -1.22128532      0.73248669     -1.39351653
C      -0.71998468     -0.29339897     -0.36345823
C      -1.77581763     -0.53536538      0.72812273
C       0.56771483      0.16653229      0.24766440
C       1.74535176     -0.46013237      0.18112680
C       2.93994518      0.09342066      0.82422402
O       4.03505854     -0.42131239      0.80163664
H      -2.15578918      0.39400692     -1.84392892
H      -0.49340489      0.88268392     -2.19124734
H      -1.40911600      1.69968764     -0.92145590
H      -0.53536982     -1.23902276     -0.88021241
H      -2.71163441     -0.87731704      0.28309354
H      -1.98481095      0.38416513      1.27980152
H      -1.44318332     -1.28869880      1.44269259
H       0.51895128      1.10691701      0.79636471
H       1.86830858     -1.39908768     -0.34768163
H       2.77506604      1.05443511      1.35677400
