15
b3lypvtz=-216928.83856607
O       3.12083619      0.92883261     -0.95614353
C       2.83795572     -0.06479941     -0.34462289
O       1.62134798     -0.40171805      0.09508126
C       0.55133490      0.54088043     -0.19301683
C      -0.72391109     -0.01724665      0.35328589
C      -2.02732219      0.38193232     -0.28818343
C      -1.50969499     -1.02148712     -0.44393174
H       3.55251240     -0.84828464     -0.05896035
H       0.49753074      0.68691622     -1.27286468
H       0.80975301      1.49813125      0.26159122
H      -0.73499538     -0.13944521      1.42909722
H      -1.99005835      1.03475567     -1.14999277
H      -2.87716085      0.54975877      0.35792718
H      -1.11814209     -1.31267187     -1.40929121
H      -2.00968598     -1.81575434      0.09182465
