18
b3lypvtz=-181910.23056505
C      -1.86121797      0.11954680      1.00491299
C      -1.02101125     -0.15244052     -0.00273516
N      -1.16673639     -1.26973916     -0.83805854
C       0.20546183      0.65353884     -0.25432377
C       0.14248605      1.98441012     -0.30828536
C       1.50846013     -0.09380133     -0.43784871
C       1.92927567     -0.89373814      0.80130726
H      -2.75984134     -0.46331794      1.16505893
H      -1.63961132      0.90350496      1.71098580
H      -0.94517445     -1.09966749     -1.80837503
H      -2.05578322     -1.73803613     -0.74500463
H      -0.79617363      2.51052266     -0.20116585
H       1.03228015      2.58162778     -0.46421492
H       2.28774806      0.62416809     -0.69927387
H       1.42090539     -0.78341269     -1.28206065
H       2.87510528     -1.40780426      0.62295213
H       1.18063508     -1.64358673      1.05657706
H       2.05759393     -0.23757586      1.66349632
