20
b3lypvtz=-182672.1578205
C       2.71407752     -0.72016489      0.60920111
C       1.74939866     -0.57072670     -0.57708968
C       0.51155544      0.23256115     -0.26923962
C       0.69385428      1.69243898      0.06301867
C      -0.69816518     -0.34351881     -0.30322289
N      -1.92938687      0.26931290     -0.08161064
C      -3.06186204     -0.56263867      0.28662995
H       2.22908857     -1.23595404      1.44015355
H       3.05412157      0.25076315      0.97415177
H       3.59951560     -1.29224170      0.32432674
H       2.29311791     -0.10095014     -1.40654033
H       1.45819337     -1.56422464     -0.92695402
H       1.56419771      2.10124903     -0.45573137
H      -0.16687544      2.29267766     -0.24076135
H       0.85482269      1.86780078      1.13241975
H      -0.78227665     -1.38965727     -0.57879153
H      -1.87746971      1.12672280      0.44487128
H      -3.96913412      0.04111423      0.29215684
H      -2.96096481     -1.04336111      1.26940556
H      -3.19554451     -1.34847271     -0.45833380
