16
b3lypvtz=-204444.37961379
C       2.18479529      0.71516310      0.43246888
C       1.19774301     -0.08861980      0.01373915
N       1.39000241     -1.39508900     -0.43322860
C      -0.21391834      0.37825511     -0.05965925
C      -0.58195399      1.61311213     -0.40981332
O      -1.07287290     -0.63832478      0.25682924
C      -2.46550125     -0.38338857      0.17184430
H       1.97968451      1.72012323      0.76172608
H       3.21253653      0.37750686      0.45153342
H       0.58418288     -1.98874340     -0.31686268
H       2.23896182     -1.83074802     -0.10973947
H      -1.61067188      1.93564369     -0.42582016
H       0.17151836      2.32848253     -0.69474959
H      -2.76777808      0.39203843      0.88036289
H      -2.74695215     -0.07585175     -0.83873963
H      -2.96202323     -1.31715474      0.42357074
