14
b3lypvtz=-226991.4319767
C       2.75469803     -0.30244386      0.00038186
C       1.33177397      0.18773863      0.00001378
N       0.91707582      1.38571587     -0.00015229
O       0.49746536     -0.87578105     -0.00014834
C      -0.88583792     -0.81410690     -0.00016723
C      -1.68574492      0.24976079     -0.00025677
O      -3.04495609      0.04077656      0.00018536
H       3.45193073      0.53216326      0.00052553
H       2.93776547     -0.92245833     -0.87814198
H       2.93733214     -0.92240656      0.87903194
H       1.70168457      2.02981028      0.00004932
H      -1.29352560     -1.81412959     -0.00000383
H      -1.32286236      1.26303065     -0.00042924
H      -3.48604722      0.89294824     -0.00145811
