15
b3lypvtz=-214534.320063
C      -2.71691544      0.04275761     -0.28858154
N      -1.50020113     -0.73623214     -0.14949528
C      -0.42983197     -0.12384615      0.17374829
N      -0.29392063      1.21751583      0.46086130
C       0.81597561     -0.96318827      0.36665130
C       2.12299929     -0.44251624     -0.17540405
O       2.37810446      0.70904656     -0.43483357
H      -2.62361361      0.84402974     -1.03579609
H      -3.02198425      0.50871619      0.65746620
H      -3.52634945     -0.60983649     -0.61130175
H       0.62687169      1.60236063      0.30463230
H      -1.05222354      1.81825630      0.18230799
H       0.62326196     -1.95453172     -0.04265771
H       0.99018365     -1.11301101      1.44223699
H       2.90080436     -1.22148784     -0.30414140
