12
b3lypvtz=-223811.6280126
N      -2.94087844      0.71451406      0.74838067
C      -2.20500942      0.15992669      0.06001101
C      -1.24456364     -0.55837314     -0.80058571
N       0.12482307     -0.51352815     -0.34205853
C       0.90910478      0.59214892     -0.56653561
N       1.99080884      0.88989821      0.04203338
O       2.24845600     -0.07389853      1.05651587
H      -1.30255139     -0.13682026     -1.80567789
H      -1.56933998     -1.59694615     -0.87787937
H       0.33813700     -1.00883968      0.51079830
H       0.60877777      1.25969486     -1.36471279
H       3.04233541      0.27222318      1.47291067
