15
b3lypvtz=-212122.77426606
C      -1.66114716     -1.42511107      0.02140885
C      -1.17120849     -0.00249893     -0.00443859
N      -1.91051672      1.03809036     -0.01477773
C       0.29492874      0.22475382     -0.00885183
N       0.73365931      1.53633111      0.07806476
N       1.07359143     -0.79757625     -0.05006574
N       2.42969211     -0.49964896     -0.06653943
H      -1.22795312     -1.99683589     -0.79859894
H      -1.35059990     -1.92109652      0.94159839
H      -2.74800170     -1.45066404     -0.05002491
H      -2.89864328      0.79266710     -0.00609125
H      -0.02921804      2.19094214     -0.03634146
H       1.53683187      1.74233876     -0.50017245
H       2.67440351      0.23656503      0.59501265
H       2.94387144     -1.34150869      0.14824671
