16
b3lypvtz=-227750.79739962
C      -2.47325087     -0.02285965     -0.09508680
C      -1.26846905     -0.91128196     -0.36337894
O      -0.08900479     -0.47989439      0.32986260
C       0.54457766      0.62671823     -0.21257435
C       1.75419965      0.48342463     -0.77327333
N       2.38845477     -0.72778967     -0.98586398
O       2.50780423      1.52439090     -1.23649084
H      -3.35867175     -0.43570818     -0.58307549
H      -2.32155642      0.98568949     -0.48170869
H      -2.67007666      0.04238231      0.97577746
H      -1.45831183     -1.92197265      0.00189019
H      -1.05848800     -0.96732068     -1.43644791
H       0.06278658      1.59311543     -0.12158146
H       1.98930568     -1.46777065     -0.42761394
H       3.39266799     -0.67120744     -0.89739028
H       2.05803281      2.35008427     -1.02957403
