15
b3lypvtz=-214523.80644924
N      -1.64941434     -1.29625971      0.10814447
C      -0.46969198     -0.56293081      0.01265238
N       0.73773056     -1.27597033     -0.14139933
C       1.82822026     -0.28939965      0.09107423
C       1.16933717      1.10770481     -0.03512092
C      -0.28790886      0.76044499      0.06979060
O      -1.31430023      1.68792076      0.15060062
H      -1.70776175     -2.02850065     -0.58823863
H      -2.46339250     -0.69812858      0.06925487
H       0.79354636     -2.06367530      0.49385733
H       2.24132781     -0.41527887      1.09502651
H       2.63464927     -0.43889656     -0.62578660
H       1.51440555      1.79696551      0.74082010
H       1.40727224      1.57565294     -1.00056932
H      -1.27433656      2.27605744     -0.61330233
