15
b3lypvtz=-214490.94953236
N       2.33135457      0.85375049      0.98383069
N       1.84945490     -0.39945112      1.31488326
C       0.73525019     -0.77765598      0.82140635
C      -0.14671951     -0.03586544     -0.10097962
C      -0.66808528     -0.69049016     -1.38437666
C      -1.59444817     -0.45535284     -0.25431042
O      -2.57363228      0.52539082     -0.44802183
H       3.31853416      0.88363122      1.18824366
H       2.16007784      1.13396674      0.02286513
H       0.40415082     -1.76176336      1.14415931
H       0.00977045      1.03232261     -0.17057885
H      -0.77712323     -0.04500566     -2.24445448
H      -0.35712091     -1.70303828     -1.60002282
H      -1.91459736     -1.31793273      0.32418201
H      -2.77676619      0.92729370      0.40327426
