16
b3lypvtz=-204453.37510015
C       2.63149394      0.34659636      0.05826137
N       1.54294397     -0.59381710     -0.11659374
C       0.25115558     -0.14545228     -0.02915180
C      -0.28105599      1.08505095     -0.07112773
C      -1.77878024      0.96597729      0.08051455
C      -1.97243652     -0.55829466     -0.05289116
O      -0.66113179     -1.15814903      0.10617796
H       2.60462722      1.09439928     -0.73596487
H       3.57722318     -0.18661666     -0.01798027
H       2.59577748      0.87211850      1.02048785
H       1.67379437     -1.50691146      0.28880890
H       0.26558047      2.00945275     -0.13261744
H      -2.34409874      1.49819356     -0.68818167
H      -2.13211274      1.33773627      1.04928638
H      -2.62537597     -0.99304945      0.70130914
H      -2.34062023     -0.83199033     -1.04406448
