15
b3lypvtz=-247837.01842397
C       0.48526311      1.65691156     -0.00001944
C       0.50999834      0.14374926     -0.00000126
C      -0.83640972     -0.51370348      0.00000759
F      -1.56808722     -0.13520603     -1.09814890
F      -1.56808658     -0.13517778      1.09815476
C       1.59265857     -0.58681009     -0.75194980
C       1.59265973     -0.58679201      0.75196315
H      -0.02743925      2.03895282     -0.88354732
H       1.50123558      2.05240514     -0.00002458
H      -0.02743851      2.03897404      0.88349968
H      -0.78340304     -1.60502135      0.00002164
H       2.32606607      0.01689167     -1.26786314
H       1.33845744     -1.50657658     -1.26166994
H       1.33845942     -1.50654628      1.26170574
H       2.32606806      0.01692213      1.26786082
