15
b3lypvtz=-240233.91776751
C      -2.68276080      0.02978061      0.10782507
C      -1.18726782      0.20147639     -0.01356123
O      -0.67692226      1.29688283     -0.10750675
C      -0.37778717     -1.09305990      0.01070843
O       0.94154434     -1.02284711     -0.44641974
C       1.87532743     -0.30981325      0.36454308
O       2.12072820      0.97670002     -0.09095294
H      -3.14250292      0.96942448      0.40318599
H      -3.08356103     -0.26859568     -0.86477170
H      -2.94103881     -0.75815386      0.81751068
H      -0.89013261     -1.83298930     -0.60950782
H      -0.43569679     -1.46837066      1.04626472
H       1.51271535     -0.32286885      1.40326238
H       2.81687245     -0.85284084      0.29707196
H       1.26204244      1.42824312     -0.12341915
