18
b3lypvtz=-181880.51927158
C       2.42221516      0.22203905     -0.43064426
C       1.34698681     -0.55226232      0.33026772
C       0.01726998      0.17546875      0.37941244
C      -1.17717014     -0.62153764      0.96529474
C      -1.84593389     -0.45020582     -0.38950747
N      -0.63282824      0.24159079     -0.98955382
C      -1.90036879      0.96281455     -0.79727507
H       2.64229605      1.17457874      0.05700783
H       3.35253645     -0.34511956     -0.48567910
H       2.09182651      0.43367029     -1.44771389
H       1.19260995     -1.52865663     -0.13801109
H       1.67296771     -0.74454803      1.35771848
H       0.15489482      1.17553750      0.80223729
H      -1.70251881     -0.20809062      1.82769054
H      -0.90691110     -1.65452302      1.18066547
H      -2.37744949     -1.22339155     -0.92984836
H      -1.95147802      1.74385013     -0.04457732
H      -2.39894497      1.19878541     -1.72860384
