16
b3lypvtz=-202018.90725437
C       2.69328797     -0.92224811     -0.24456261
C       1.70634336     -0.32042036      0.40451625
C       0.50843035      0.30583886     -0.25483599
C       0.43324827      1.80721371      0.03544310
N      -0.68639181     -0.37927592      0.25157843
N      -1.88575325      0.06550597     -0.13201993
N      -2.79986322     -0.77869670     -0.00666793
H       3.54583143     -1.33607635      0.27736034
H       2.68803413     -1.01722034     -1.32414009
H       1.73452485     -0.24198914      1.48778064
H       0.59184130      0.15971535     -1.33871793
H      -0.45577551      2.24147097     -0.41675800
H       0.39318348      1.98604645      1.11097628
H       1.31512123      2.30332351     -0.36941132
H      -0.63329435     -1.38739364      0.38098577
H      -3.65805224     -0.30171524     -0.28877503
