17
b3lypvtz=-191981.17278842
C       2.50386887     -0.26526957     -0.54655595
N       1.47744363     -0.59148049      0.11154184
C       0.38289419      0.29435146      0.21982011
N       0.40970179      1.39752222      0.84988551
C      -0.89746416     -0.25328567     -0.38465367
C      -1.44567205     -1.38876775      0.49881201
C      -1.94113065      0.83887745     -0.60917978
H       2.59453517      0.68404474     -1.08446155
H       3.34931578     -0.94803078     -0.59022068
H       1.33841300      1.58021081      1.23015733
H      -0.62519300     -0.69183039     -1.35083417
H      -0.70259463     -2.17062883      0.64926172
H      -1.73842456     -1.00019591      1.47582272
H      -2.32624500     -1.83407320      0.03333613
H      -2.82948645      0.41245019     -1.07825909
H      -1.55874428      1.63143314     -1.25236637
H      -2.23113063      1.29693858      0.33541888
