14
b3lypvtz=-180363.83886941
C       1.83671030      1.86813395      0.00001181
C       1.26245563      0.81118464      0.00000789
C       0.66014492     -0.48016173      0.00000903
C       1.61593011     -1.64590180      0.00001368
C      -0.67795476     -0.65117063      0.00000623
C      -1.66513527      0.42017294      0.00000111
N      -2.93290205      0.28233298     -0.00000165
H       2.32491213      2.81090916      0.00000852
H       1.07923017     -2.59315691      0.00001454
H       2.26520973     -1.60889949     -0.87707396
H       2.26520600     -1.60889572      0.87710392
H      -1.06616741     -1.66501003      0.00000793
H      -1.27381030      1.43734316     -0.00000237
H      -3.18910020     -0.70843751      0.00000132
