15
b3lypvtz=-191221.53466871
C      -2.62371022     -0.32535307     -0.09136968
C      -1.40053116     -0.44492998      0.41915041
C      -0.23868370      0.38753547      0.05357608
C      -0.34088176      1.69859950     -0.19261090
C       1.07575103     -0.32538449     -0.04150321
N       1.21331745     -1.55922743     -0.34747681
N       2.19917975      0.45206118      0.16638447
H      -3.43559900     -0.95521906      0.24642777
H      -2.84990128      0.39325763     -0.86897592
H      -1.21187099     -1.21997830      1.15525955
H       0.51375246      2.28021078     -0.50816829
H      -1.28679276      2.21427543     -0.09968244
H       0.31553165     -1.98115694     -0.56696401
H       2.12664196      1.18571515      0.85122656
H       3.05578957     -0.07862887      0.20399142
