15
b3lypvtz=-214530.63645061
N      -2.88553640      0.38155372      0.21639897
C      -1.91551453     -0.12417581     -0.14122611
C      -0.67134237     -0.75680920     -0.56206888
C       0.48270651     -0.56636930      0.44937498
N       1.60680899     -1.38399403     -0.00579096
C       0.82668018      0.91206407      0.64043715
O       1.30653059      1.40466981     -0.61023327
H      -0.83999171     -1.82470369     -0.69919343
H      -0.37682600     -0.34078209     -1.52714239
H       0.15364892     -0.95657004      1.41468615
H       2.08577305     -0.90679869     -0.76223667
H       2.28209696     -1.50020561      0.74022593
H      -0.05621269      1.46832128      0.97116881
H       1.59834859      0.99885912      1.41423729
H       1.42483392      2.35594547     -0.55192057
