16
b3lypvtz=-204430.623890764
C       1.89319143     -0.03286948      0.45587816
C       0.68524587      0.16721516     -0.45607788
C      -0.26683050     -1.01875573     -0.52226792
N      -1.62238053     -0.52221696      0.02700112
H      -1.84996445     -1.04315465      0.87790783
H      -2.35787504     -0.75461163     -0.64229288
C      -1.48164573      0.92437400      0.24823296
C      -0.18665303      1.37032376      0.03182130
O       0.31442617      2.48976577      0.16670348
H       1.58185468     -0.32452482      1.46247954
H       2.43025625      0.91130891      0.53657637
H       2.57706692     -0.79442057      0.07411607
H       1.03578421      0.41896636     -1.45868722
H       0.03672571     -1.86366429      0.09321360
H      -0.45216768     -1.37401755     -1.53269939
H      -2.33703431      1.44628174      0.63809483
