13
b3lypvtz=-237031.87110888
N      -0.71080208      1.69076307     -2.04669943
C      -0.08601277      0.67958016     -1.60969427
C      -0.10976550      0.11939342     -0.22779285
C       0.58373588     -1.19422319      0.06384164
O       1.61443060     -1.07910444      1.03035341
N      -0.73084571      0.80714201      0.65114558
O      -0.71721486      0.19597142      1.91122507
H      -1.26891509      2.11156839     -1.29926256
H       0.54990048      0.13188923     -2.30678444
H      -0.17314715     -1.92747144      0.36845531
H       1.05570366     -1.56491911     -0.84510621
H       1.20278823     -0.78675965      1.85131380
H      -1.20965570      0.81627011      2.45900495
