17
b3lypvtz=-194355.28668516
C      -2.98462394      0.64783984     -0.13428743
C      -1.71801244      0.18628220      0.55687429
O      -0.65054547      0.22534498     -0.37703658
C       0.58623632     -0.18883590      0.16331316
C       1.63195987     -0.09839877     -0.94868122
C       2.95717411     -0.50697746     -0.50130706
C       4.04089340     -0.84688813     -0.11519016
H      -3.82464113      0.62882396      0.56165742
H      -2.86862058      1.66550198     -0.50810603
H      -3.21989430     -0.00192792     -0.97766945
H      -1.83764476     -0.83533462      0.94273386
H      -1.48672406      0.83337465      1.41397853
H       0.52199590     -1.21902180      0.53656978
H       0.87673737      0.45157613      1.00608224
H       1.31047888     -0.72419721     -1.78489654
H       1.66309511      0.92920785     -1.31942958
H       5.00213576     -1.14636977      0.22011805
