16
b3lypvtz=-204437.87986439
C      -1.45635357     -0.72451452      0.62869855
N      -1.19909140      0.73758632      0.55275699
C      -0.35036663      0.57170223     -0.65819304
C       1.10965286      0.95634511     -0.44289236
C       1.61219383     -0.18749699      0.44354948
O       0.90736712     -1.35576485     -0.00452008
C      -0.37707568     -0.96781795     -0.45438221
H      -2.45389038     -1.03095979      0.29949709
H      -1.25285192     -1.16542310      1.60644873
H      -2.02081770      1.31133152      0.42160371
H      -0.77804311      0.95644013     -1.58530362
H       1.21338698      1.93254566      0.02982557
H       1.64053434      0.96484947     -1.39741949
H       2.67709896     -0.39172242      0.34400579
H       1.38570412      0.01237406      1.49513783
H      -0.65764782     -1.61947491     -1.27881292
