10
b3lypvtz=-246359.88782923
N      -1.69869518      1.90920621     -0.39010725
N      -1.45131484      0.87278859      0.24480492
N      -0.25163215      0.34413854     -0.11124749
C       0.23321790     -0.80534726      0.45912456
O      -0.29707889     -1.47906352      1.30892116
C       1.60272025     -1.19972290     -0.10690730
O       2.17948722     -0.57014864     -0.95262945
H      -2.61160730      2.22922944     -0.05624857
H       0.29572397      0.82281123     -0.82323324
H       1.99897903     -2.12389170      0.34732267
