14
b3lypvtz=-180325.85318582
C      -1.23756068      1.06466526      0.10565833
C      -1.56828284     -0.03269486     -0.57764899
C      -0.31370262     -0.87927497     -0.56489478
C       0.90562082      0.09334135     -0.70412528
C       0.20532758      0.82664227      0.49901677
C       0.35317035     -0.70209163      0.84080779
N       1.71417051     -0.80249382      0.19976359
H      -1.83990478      1.92989484      0.33587478
H      -2.50746109     -0.28615879     -1.04399323
H      -0.27293981     -1.84957284     -1.04983291
H       1.31281715      0.53115174     -1.61742800
H       0.76291760      1.56148262      1.07672407
H       0.10090140     -1.21372336      1.77151011
H       2.38492640     -0.24116782      0.72856778
