14
b3lypvtz=-180358.47510041
C       3.05997237     -0.36703704      0.09448840
C       1.86844752     -0.48872105     -0.03203211
C       0.47537976     -0.68331275     -0.18051074
C      -0.45389461      0.29452197     -0.11277457
C      -0.15389667      1.74246343      0.12100492
N      -1.80191807      0.02378001     -0.36958723
C      -2.42884056     -0.85650935      0.28663504
H       4.10907811     -0.25435362      0.20653417
H       0.14830072     -1.69099782     -0.41055047
H      -0.65370290      2.09248511      1.02802704
H       0.91488056      1.91415713      0.21914398
H      -0.54336671      2.33774271     -0.70693558
H      -1.98207544     -1.41208482      1.11709181
H      -3.46048105     -1.07776491      0.02552634
