16
b3lypvtz=-227726.48173381298
C       1.37664711     -1.22936427      0.30541228
C       0.85619279      0.20428552      0.32615817
C      -0.63127745      0.25670935      0.08389774
N      -1.41233644      0.07298619      1.11066107
O      -1.07299258     -0.16097341      2.31747364
C      -1.22051412      0.46869813     -1.26951512
O       1.56695490      0.94158955     -0.67142181
H       1.22224712     -1.68022193     -0.67579351
H       2.44452407     -1.23489958      0.52250529
H       0.85809654     -1.81966021      1.05999098
H       1.03469360      0.61911070      1.32251736
H      -2.42174110      0.11923338      0.92562324
H      -0.91084054      1.42345718     -1.69705534
H      -2.31118107      0.44489102     -1.23150407
H      -0.88788273     -0.30430392     -1.96705631
H       1.50940992      1.87846230     -0.46189361
