10
b3lypvtz=-225500.99594718
N       3.44701957     -0.26454834      0.00005236
C       2.33241425      0.03069524     -0.00001580
C       0.96778707      0.42689661     -0.00003385
C      -0.04567156     -0.44143084     -0.00005677
C      -1.44270061      0.05738383     -0.00003906
O      -1.77066565      1.21697039      0.00002768
O      -2.32159067     -0.96766221      0.00006864
H       0.76062193      1.49094473     -0.00002731
H       0.11159542     -1.51045241     -0.00007629
H      -3.21102075     -0.58291699      0.00014541
