16
b3lypvtz=-181109.98116797
C      -2.11823286      0.83811798      0.17761786
C      -1.46193791     -0.48183926     -0.22931197
C       0.02050652     -0.34911155     -0.47348568
C       1.01288230     -0.51525002      0.63200274
N       0.82377935     -1.57021634     -0.39548890
C       2.22090286      0.26045335      0.65061809
C       3.24252722      0.89206879      0.66777425
H      -1.98798723      1.60109708     -0.59272896
H      -1.68706687      1.22621290      1.10231355
H      -3.18944161      0.70918891      0.33652368
H      -1.92981248     -0.86553404     -1.14094884
H      -1.62094336     -1.24214588      0.53850651
H       0.30155675      0.37518397     -1.23234617
H       0.63638734     -0.79942804      1.60838102
H       1.59475683     -1.53357731     -1.05475752
H       4.14212315      1.45477947      0.68479939
