9
b3lypvtz=-289731.51778538
C      -1.92702364     -0.05331650      0.06331857
N      -0.85165263     -0.59828648      0.40404759
C       0.34848853     -0.00690086      0.11961137
N       1.43572099     -0.56347416      0.46698057
O       2.54848099      0.17862215      0.09583096
F       0.32815761      1.17358034     -0.53502205
F      -3.07765687     -0.65092172      0.35307701
H      -2.07849687      0.88470382     -0.46196162
H       3.27398188     -0.36400659      0.42254108
