13
b3lypvtz=-213774.4102003
N      -2.90155061     -0.73165083     -0.03085588
C      -2.01454386      0.01106866     -0.04502202
C      -0.94034813      0.92567790     -0.06577764
C       0.35504525      0.54051820      0.05511539
N       1.40131484      1.40859093      0.08550066
C       0.73854833     -0.90394419      0.26804758
O       2.03982276     -1.11516833     -0.27737213
H      -1.19208558      1.97426289     -0.16035290
H       1.25229892      2.35803373     -0.20975784
H       2.30919693      1.01572773     -0.10243113
H      -0.00400962     -1.55022784     -0.20186628
H       0.73316619     -1.10495789      1.34571815
H       2.35910857     -1.97484196      0.00864403
