17
b3lypvtz=-217690.4204152
C       2.40871287     -0.00921282     -0.09955139
C       0.95755252      0.02557755      0.33485011
C       0.19692863      1.26419745     -0.14402439
C      -1.28917809      1.10800134      0.16687970
O      -1.77903784     -0.12834937     -0.34597353
C      -1.03747621     -1.21055221      0.15607888
O       0.32265227     -1.14944015     -0.18819049
H       2.48001445      0.01764451     -1.18768201
H       2.94933260      0.84762525      0.30566809
H       2.88978814     -0.92156482      0.25303340
H       0.90275410     -0.01879807      1.43378740
H       0.59170070      2.16238233      0.33777632
H       0.33304571      1.36953065     -1.22277915
H      -1.45666000      1.14602087      1.25315504
H      -1.88588683      1.89306908     -0.29498763
H      -1.13912356     -1.24795441      1.25443667
H      -1.44226947     -2.11387716     -0.29361604
