12
b3lypvtz=-247190.2770209
N      -1.90223132      0.46127756     -0.20949177
C      -0.64243876     -0.06527017     -0.25492243
N      -0.52815703     -1.35824058     -0.61524101
N       0.35293353      0.73048322      0.06237255
C       1.62452635      0.21331215      0.14658821
O       2.52599091      1.15445241      0.50872530
O       2.00838777     -0.92803395     -0.05742450
H      -1.93285249      1.46139643     -0.10502199
H      -2.61758894      0.05403383     -0.78722511
H      -1.33120351     -1.96099141     -0.59673466
H       2.03280644      1.97698828      0.62441479
H       0.40982704     -1.73940778     -0.51013937
