17
b3lypvtz=-217676.6958543
C      -2.16557270     -0.97701840      0.10747230
C      -0.89897493     -0.78460388      0.44567077
C      -0.04377127      0.37481089     -0.03159110
C       0.31268622      1.31412567      1.11791460
O      -0.70025495      1.15482862     -0.99415440
O       1.13446631     -0.10313336     -0.70357661
C       1.98924384     -1.00843827     -0.02830281
H      -2.72771460     -1.81820879      0.49155062
H      -2.68199641     -0.29275458     -0.55263641
H      -0.42064399     -1.47137251      1.13519849
H       0.78673855      0.77910945      1.94016932
H       0.98970711      2.08336387      0.74858517
H      -0.59389764      1.78434545      1.49574653
H      -0.69108679      0.65120124     -1.81697478
H       2.87818081     -1.10567235     -0.64915641
H       1.53934702     -1.99870437      0.08944933
H       2.29593440     -0.63774868      0.95461637
