17
b3lypvtz=-194368.68939018
O       3.16415320      0.40964080     -1.09685117
C       2.41565326      1.17378467     -0.24950629
C       1.24894205      0.86517677      0.31292283
C       0.47017361     -0.40721196      0.13047151
C      -0.95368304     -0.17022924     -0.33866237
C      -2.03771288      0.13678822      0.65838581
C      -2.02620251     -1.18766479     -0.06278061
H       2.72439217     -0.43514985     -1.24361201
H       2.90135024      2.12328982     -0.06878233
H       0.81384960      1.61400619      0.96268545
H       0.43564200     -0.96017534      1.07670025
H       0.96641868     -1.07900370     -0.58007746
H      -1.02499689      0.35042648     -1.28624588
H      -2.79645927      0.85943201      0.39219951
H      -1.77175123      0.13915459      1.70754109
H      -1.75294269     -2.06707964      0.50575435
H      -2.77692628     -1.36508504     -0.82024269
