12
b3lypvtz=-223806.87396945
N       1.06365821      0.08025728      0.24350178
C       0.34599866      1.17505853      0.69300847
N      -0.88088542      0.85403105      1.26387179
C      -1.61171109      1.97740848      1.75032644
C      -1.06292327      3.18171809      1.69694378
O       0.19323591      3.43076943      1.22863194
N       0.85471593      2.34182283      0.53223768
H       0.51250338     -0.57343482     -0.29563106
H       1.91851066      0.34765039     -0.22286904
H      -0.83383858      0.05264997      1.87935297
H      -2.62265330      1.80727417      2.08148481
H      -1.56801109      4.08759460      1.99814044
