16
b3lypvtz=-204436.33973651
C      -2.10626361     -1.37189632      0.21352947
C      -0.97697455     -0.92675763     -0.31983520
C      -0.56471771      0.51177674     -0.40415357
O      -1.56370240      1.32534713      0.20017068
C       0.79706777      0.76077976      0.28002221
N       1.87273263      0.08273436     -0.41711941
C       2.66338757     -0.63564049      0.25251949
H      -2.33071604     -2.43025067      0.23749382
H      -2.83570329     -0.69434944      0.63473873
H      -0.26101697     -1.62237098     -0.74349323
H      -0.44619787      0.77058706     -1.46456106
H      -1.38372265      2.24443004     -0.01696852
H       0.72401117      0.48486051      1.34022746
H       0.99969226      1.83506890      0.22001493
H       3.47927587     -1.14697845     -0.25425382
H       2.57935181     -0.77892254      1.33700002
