14
b3lypvtz=-255320.06137627
C      -1.06581547     -0.54208774     -0.07586418
C       0.40347104     -0.68957978      0.26499706
O       1.13309564      0.35902863     -0.42247930
C       2.46284339      0.36206679     -0.25365599
O       3.08940431     -0.41474354      0.41079172
C      -1.67278171      0.74710674      0.44543522
F      -3.03301514      0.77664665      0.13846073
H      -1.20199210     -0.59572906     -1.15759186
H      -1.60271222     -1.38713507      0.36161658
H       0.58945399     -0.59683203      1.33633531
H       0.79232093     -1.65483539     -0.05698733
H       2.89458082      1.19392169     -0.82494786
H      -1.21064395      1.62282956     -0.01094432
H      -1.57820951      0.81934255      1.53214462
