15
b3lypvtz=-191198.25928183
C      -1.36075942      0.00385588     -0.60363893
C      -1.16408085     -0.99918135      0.50487302
N      -0.06017238     -1.43147628      0.94716650
C       1.16880061     -0.94563419      0.32684221
C       1.08286788      0.37853552     -0.40522643
C       0.40410250      1.54263419      0.21467773
N      -0.20804257      0.84452155     -0.92107288
H      -1.64089228     -0.54191963     -1.51265857
H      -2.21233592      0.64781958     -0.36645684
H      -2.07294769     -1.40228670      0.95696878
H       1.93868536     -0.89679333      1.10125831
H       1.49943954     -1.72250491     -0.37113740
H       1.91466460      0.57165807     -1.07578191
H       0.74329129      2.54961909      0.00666041
H      -0.03272067      1.40115251      1.19762599
