17
b3lypvtz=-171065.07271879
C      -3.24921316     -0.00503478      0.07222279
C      -1.96106899     -0.35116042     -0.00429095
C      -0.85260708      0.58454382     -0.02093831
C       0.43224609      0.23553330     -0.10302197
C       1.17177452     -1.09160366     -0.12082075
C       2.47729970     -0.31075345      0.21630175
C       1.72641768      1.02421934     -0.06961664
H      -4.03586648     -0.74693666      0.07955068
H      -3.55368609      1.03350649      0.12809440
H      -1.70595204     -1.40516511     -0.06134715
H      -1.10066261      1.64119612      0.03985687
H       0.84884960     -1.84850642      0.59492474
H       1.19812603     -1.55092503     -1.11224947
H       3.34427047     -0.52309875     -0.40632897
H       2.76237902     -0.41157350      1.26214696
H       1.98648468      1.45326069     -1.04075325
H       1.80444366      1.81163001      0.68114625
