19
b3lypvtz=-195136.83800674
C       1.93040398     -0.61170244      0.06655297
C       0.90662769      0.51215650     -0.07431489
C      -0.53561814      0.04816248      0.02928374
C      -1.53287430      1.07810057      0.48840723
C      -1.11640594     -0.03357311      1.41786630
C      -0.98907559     -0.96455338     -1.00251903
O       1.04499376      1.17776181     -1.33700040
H       1.83189152     -1.33457424     -0.74321879
H       2.94634229     -0.20954368      0.03829642
H       1.80785026     -1.13359429      1.01708598
H       1.07709484      1.23678543      0.73355538
H      -1.17370848      2.07707463      0.69514617
H      -2.52720355      1.04321345      0.06441099
H      -0.48472435      0.21874665      2.25979345
H      -1.82581900     -0.82470732      1.62045109
H      -0.82174448     -0.58538911     -2.01111369
H      -0.45748494     -1.91337941     -0.90275760
H      -2.05374224     -1.17388125     -0.89103113
H       1.97319669      1.39289669     -1.46889418
