15
b3lypvtz=-193597.31798537
C      -2.16484660      0.60055758      0.48076121
C      -1.08470958     -0.49022954      0.43358913
C      -0.19429773     -0.37388507     -0.76244284
C       1.12827514     -0.17480334     -0.73968243
O       1.82539649     -0.08135729     -1.92845464
C       1.90926633     -0.04769041      0.44624176
C       2.62438743      0.07026606      1.40641150
H      -2.82159478      0.45963290      1.34091723
H      -2.78358229      0.58240596     -0.41856215
H      -1.71458307      1.59150964      0.55455289
H      -0.48874670     -0.45895398      1.34676960
H      -1.57704086     -1.46898218      0.41720272
H      -0.65443091     -0.44599739     -1.74245613
H       2.75551714      0.06556136     -1.73146450
H       3.24108998      0.17196569      2.26451665
