16
b3lypvtz=-204453.52697
C       3.54420054     -0.08499835     -0.00000362
C       2.10588259     -0.49084724      0.00000077
C       1.07872864      0.35935162      0.00002123
N      -0.24788786     -0.07274371      0.00002401
C      -1.16480874      0.80076686      0.00005604
O      -2.47199236      0.51568579      0.00002748
C      -2.82570910     -0.87451171     -0.00000339
H       4.06789747     -0.47830680     -0.87632918
H       3.65692442      1.00000219      0.00001198
H       4.06790954     -0.47833330      0.87630282
H       1.88101792     -1.55221492     -0.00001297
H       1.26431430      1.43639941      0.00004116
H      -1.01096124      1.88209499      0.00002496
H      -2.42900029     -1.36992087     -0.88557442
H      -3.91167329     -0.89890640     -0.00004876
H      -2.42907654     -1.36994257      0.88558989
