18
b3lypvtz=-228519.12358881
C       3.11885743     -0.40818499     -0.17905292
C       1.88821354      0.33719694      0.29399369
O       0.73455304     -0.39118901     -0.12525182
C      -0.47847855      0.14925149      0.30252001
O      -0.71170372      1.40099002     -0.30124207
C      -1.57236734     -0.84650848     -0.08818727
N      -2.88578444     -0.20363785      0.02914338
H       4.02198167      0.12137615      0.12856922
H       3.12200948     -0.49030899     -1.26628429
H       3.14820977     -1.41446838      0.24042616
H       1.85735140      1.34660539     -0.12359418
H       1.88319368      0.42625826      1.38850990
H      -0.44505776      0.28230528      1.39846164
H      -1.67196336      1.43920984     -0.44018940
H      -1.40572622     -1.10315400     -1.13463473
H      -1.45799074     -1.75920436      0.50508164
H      -3.57774174     -0.67767687     -0.53500920
H      -3.22036315     -0.21245043      0.98515025
