12
b3lypvtz=-249567.90842826
C      -1.02632115     -0.39619342     -0.03107243
C      -2.22411732      0.51487560      0.00520987
O      -2.19864849      1.70903330      0.11772167
O       0.16743805      0.35363330      0.08907366
C       1.31731291     -0.37899588      0.06894797
O       1.35571777     -1.58207894     -0.04170931
N       2.38609782      0.44411156      0.19066087
H      -1.04645916     -0.96729938     -0.96595340
H      -1.11848629     -1.13168867      0.77581135
H      -3.18182624     -0.04119987     -0.08569763
H       2.26630437      1.43618621      0.27818904
H       3.30298772      0.03961619      0.19141642
