12
b3lypvtz=-202959.07240119
O       1.37309014      0.16349477      0.65386176
C       2.30887848     -0.02365096     -0.07695737
N       2.95238505      0.97339270     -0.80049310
C       2.62833318      2.32329813     -0.79940717
C       3.49571721      2.95804882     -1.63521137
C       4.38879550      1.97364750     -2.17463274
C       4.03662125      0.76936106     -1.64935281
H       2.75997790     -1.01280553     -0.25287897
H       1.81125984      2.67893881     -0.19916332
H       3.50319091      4.01375046     -1.84833581
H       5.19342687      2.14768622     -2.86875909
H       4.44472366     -0.21616198     -1.79057000
