16
b3lypvtz=-181129.70419862
C      -2.47999086     -1.29440348      0.95070188
C      -1.24763012     -1.21536730      0.46432214
C      -0.55271500      0.06046932      0.13002947
C       0.84686419      0.34816625      0.76938770
C       1.31157102      0.63655545     -0.64764539
C       2.36970975      1.22596103     -1.19432921
N       0.13836597      0.08226830     -1.18265160
H      -2.93612842     -2.24424805      1.19605503
H      -3.07795387     -0.40691609      1.12435959
H      -0.67034695     -2.11852788      0.28850671
H      -1.22957144      0.90908964      0.27059761
H       1.30489063     -0.53437623      1.21537327
H       0.88768896      1.17547455      1.47391612
H       3.18096680      1.57546259     -0.57323330
H       2.45472461      1.36501515     -2.26372460
H      -0.30044526      0.43527675     -2.02156542
