14
b3lypvtz=-227011.88751798
C      -2.55589882     -0.90142275     -0.06911066
C      -1.46991280      0.13890501     -0.04129596
O      -1.63566393      1.33063478     -0.04286701
O      -0.24431411     -0.44036859     -0.02728000
C       0.87919700      0.45878189     -0.01656482
C       2.10506530     -0.34218371      0.32217958
N       3.26152039     -0.20174008     -0.16810479
H      -2.39813711     -1.63863985      0.71722138
H      -2.52830370     -1.43064692     -1.02267776
H      -3.52099338     -0.41906277      0.05150674
H       0.70940335      1.23489371      0.73411358
H       0.97600984      0.94728810     -0.98781699
H       1.96218198     -1.09825592      1.09655796
H       3.27317200      0.52479908     -0.88850024
