16
b3lypvtz=-204431.38187828
C      -3.16676452     -0.16114705      0.12876945
C      -1.73913074      0.06635240     -0.05202779
C      -0.56432197      0.27383584     -0.21442635
C       0.87807612      0.52454057     -0.37173454
N       1.33208627      1.83050224      0.12413261
C       1.69381279     -0.57747480      0.32756466
O       1.36762442     -1.87610639     -0.12871558
H      -3.57599278     -0.76114936     -0.68649976
H      -3.36960747     -0.68539971      1.06471301
H      -3.71244810      0.78437385      0.15209192
H       1.12187924      0.47655576     -1.43631468
H       1.02379525      1.95850386      1.08214901
H       0.90244249      2.57347711     -0.41410109
H       2.74754668     -0.41715507      0.10650007
H       1.55570911     -0.48628244      1.41336533
H       0.42043522     -2.00396578      0.00017673
