12
b3lypvtz=-223859.35787038
C      -0.58239756     -1.06498232      0.08786833
C      -0.95733479      0.42311446      0.07139954
N      -2.05375877      1.05003688      0.15725662
N       0.27385272      1.05230048     -0.07269020
C       1.25532240      0.08669839     -0.13490469
N       0.87681334     -1.12597455     -0.05421201
O       2.51354308      0.51912882     -0.27441989
H      -0.90345555     -1.53246983      1.02181889
H      -1.07687602     -1.59590021     -0.72916813
H      -2.83454484      0.40709097      0.25736906
H       0.41149879      2.04688173     -0.12199497
H       3.07733719     -0.26592482     -0.30186841
