17
b3lypvtz=-194366.33287875
C       2.20224063     -0.21971269      0.12044499
C       0.87381074      0.05161711     -0.57338348
C       0.11623495      1.32347713     -0.06260385
C      -1.16791628      0.62329056      0.41135295
C      -1.52487825     -0.32090699     -0.75310728
C      -0.23331382     -0.96745665     -0.22029334
O      -0.63142849     -0.54158693      1.12750943
H       2.05564769     -0.32305365      1.19633538
H       2.90797972      0.59616781     -0.04769266
H       2.66317025     -1.13778415     -0.25144919
H       1.02264273      0.08802286     -1.65496618
H      -0.06540877      2.06539201     -0.84072232
H       0.63369243      1.80592248      0.76601737
H      -1.90583133      1.18791599      0.97502498
H      -1.54193692      0.07225843     -1.77022153
H      -2.40474441     -0.92204659     -0.53912704
H      -0.01233386     -2.02908272     -0.30234223
