18
b3lypvtz=-181900.71066274
N      -3.28635840     -0.08477904     -0.15657173
C      -2.00128017      0.00483152      0.37757534
C      -0.85196045      0.02007783     -0.30321742
C       0.49708313      0.00926206      0.32389133
C       1.53639997     -1.07986546     -0.08934643
C       2.65084734     -0.00910016      0.00277660
C       1.55273367      1.07758322     -0.09868932
H      -4.00112125      0.38434461      0.37734161
H      -3.35480347      0.13676228     -1.13884723
H      -1.98385548     -0.00312479      1.46290271
H      -0.88256982      0.02670336     -1.39158597
H       0.39725069      0.01328478      1.41255738
H       1.61400961     -1.96518661      0.54201860
H       1.37281700     -1.40169112     -1.11945384
H       3.13125404     -0.00842899      0.98193787
H       3.42653769     -0.01821736     -0.76214229
H       1.64436762      1.96754336      0.52443731
H       1.39432930      1.39257252     -1.13186752
