13
b3lypvtz=-234630.92024465
C      -1.54025198     -0.11432392      0.01009330
C      -0.28341463     -0.52005470      0.32050813
N      -0.09105788     -1.55559443      1.27900285
N       0.75567098      0.13140709     -0.34157371
N       1.89833297     -0.21810171     -0.03829065
O       2.81775591      0.52122143     -0.81110447
N      -1.86417249      0.92417241     -0.80994583
H      -2.36552156     -0.62457607      0.48678082
H       0.50048175     -2.28565022      0.89459579
H       0.40646118     -1.20366271      2.09145095
H       3.66266190      0.17873925     -0.49667669
H      -1.11731566      1.31431984     -1.36309622
H      -2.77963048      0.93893211     -1.22174428
