15
b3lypvtz=-212092.46567142
C      -3.35951288      0.30104553     -0.01761595
N      -2.16608187     -0.51049461     -0.08456974
N      -0.99491901      0.03626271      0.16168914
N      -0.01445391     -0.70109733     -0.13370815
C       1.19882527     -0.08401117      0.19291553
N       2.29353581     -0.67157615     -0.03477648
C       3.51186607      0.01992597      0.32154945
H      -3.63457179      0.71712228     -0.99162761
H      -4.19070016     -0.29622666      0.35651096
H      -3.17429161      1.12016323      0.67294965
H      -2.15608468     -1.39933779     -0.57615432
H       1.11889910      0.91523106      0.64438263
H       3.35128437      1.01266975      0.76429008
H       4.07929074     -0.59045419      1.02821179
H       4.13691456      0.13077735     -0.56778701
