18
b3lypvtz=-181892.99664486
C       2.11408906      0.05850673     -0.23676665
C       0.76136901     -0.63231402     -0.16078335
C      -0.36687069     -0.03979483     -1.02969979
C      -1.59880754     -0.76767426     -0.41327088
C      -1.19544903      0.07813105      0.81689294
C      -0.82301408      1.19555558     -0.19723941
N       0.09801501     -0.54310907      1.18600471
H       2.79937332     -0.35985856      0.50394075
H       2.56578995     -0.08751494     -1.22017277
H       2.03876392      1.13219275     -0.05623937
H       0.90242409     -1.68753615     -0.41284976
H      -0.19374137      0.00872214     -2.10272281
H      -1.55651235     -1.85129917     -0.30638552
H      -2.54238676     -0.45381752     -0.85459407
H      -1.85615001      0.23897752      1.66521844
H      -0.08100001      1.93490534      0.10571800
H      -1.68890116      1.68877806     -0.63641837
H       0.62300864      0.08714937      1.78319613
