15
b3lypvtz=-214504.85397513
C      -2.32632827     -0.75632909      0.67453058
N      -2.24322610      0.23161727     -0.12217471
N      -1.00413219      0.60749657     -0.60431628
C       0.08694233     -0.31142872     -0.64821174
C       1.23356057      0.00456732     -0.03157586
C       2.46363627     -0.83594761     -0.02632998
O       1.38227095      1.16554183      0.65378780
H      -3.30960160     -0.99409699      1.05896972
H      -1.47557956     -1.35461879      0.99608346
H      -1.14711530      1.14832198     -1.44433300
H      -0.03346063     -1.25607054     -1.16666491
H       2.30364933     -1.76657293     -0.56674219
H       2.75757122     -1.06405896      1.00013311
H       3.29318575     -0.29670836     -0.48834778
H       0.52456421      1.62064101      0.60863577
