19
b3lypvtz=-171819.91226729
C      -1.70279075     -0.93818198     -0.47977303
C      -0.63407079      0.04171211     -0.00002463
C      -1.24108344      1.42137799      0.23523638
C       0.21920722     -0.57139527      1.17117827
C       1.41583247     -0.69152750      0.22559583
C       1.80395693      0.65939287     -0.29269640
C       0.61895953     -0.03214781     -0.89827339
H      -1.27830690     -1.92719237     -0.66279484
H      -2.49758197     -1.04296462      0.26267470
H      -2.15856820     -0.59252629     -1.41132728
H      -0.49643508      2.14427449      0.56975018
H      -1.69367538      1.80812811     -0.68133585
H      -2.02306735      1.37592555      0.99766341
H       0.37508862      0.06863691      2.04285444
H      -0.17483188     -1.52915532      1.50888637
H       2.08711033     -1.53661857      0.16817585
H       2.68703828      0.68274957     -0.91807553
H       1.68346142      1.53926643      0.32956087
H       0.59695196     -0.29007427     -1.94940636
