15
b3lypvtz=-193563.21780279
O       1.18250958     -0.92493524     -0.55867483
C       0.35220687     -1.68872396      0.24741334
C      -0.98807208     -1.31170007      0.89959006
C      -0.77116031     -2.80057456      1.23549544
C       0.77054984     -2.63639370      1.43521964
C       1.09612983     -3.79498163      0.47481513
C      -0.12907623     -3.11103475     -0.16018810
H       1.51466865     -0.17848652     -0.04874177
H      -0.95359241     -0.61123644      1.73737666
H      -1.81122377     -1.07414968      0.22335651
H      -1.41159632     -3.47119053      1.79979019
H       1.26482651     -2.33612270      2.35879609
H       2.03367437     -3.72559976     -0.07702639
H       0.94657901     -4.80516358      0.85955278
H      -0.67242354     -3.35800688     -1.07077477
