19
b3lypvtz=-192742.62533296
C      -1.88482388     -0.98960360     -0.47761241
C      -0.79664119     -0.02221302      0.02313099
C      -1.22651715      1.42010965     -0.27404472
N      -0.56723898     -0.12765043      1.47419899
C       0.53502649     -0.36881846     -0.68282933
C       1.74769009      0.36455220     -0.17140317
N       2.88418816     -0.12694310      0.09478259
H      -1.61915715     -2.02351354     -0.24687994
H      -2.83962665     -0.77189283      0.00584022
H      -2.03198850     -0.91302638     -1.55756271
H      -0.48931711      2.13693760      0.08350583
H      -1.37570246      1.57246837     -1.34396373
H      -2.17176862      1.64177267      0.22686282
H      -0.28128175     -1.06818128      1.72526175
H      -1.42358227      0.06365219      1.98286972
H       0.72034068     -1.44487286     -0.60055810
H       0.42260849     -0.15318304     -1.75097640
H       1.64083962      1.44256303     -0.04398453
H       2.88415418     -1.13977116     -0.05346088
