15
b3lypvtz=-216924.45446485
O       0.63313417      2.18086337     -0.15976401
C       0.27834214      0.91012118      0.39880244
C       1.32215540     -0.14154475      0.13516535
C       1.01340619     -1.35467052     -0.32185685
O      -0.24272631     -1.82196357     -0.53521101
C      -1.29258155     -0.98887536     -0.01325809
C      -1.03202180      0.48682539     -0.25866481
H       1.47282286      2.45762751      0.21969231
H       0.12452600      1.03137038      1.48002722
H       2.36515573      0.10470076      0.28802064
H       1.75598297     -2.10102770     -0.57185174
H      -1.38285686     -1.19615066      1.05897563
H      -2.20294148     -1.32374604     -0.50615381
H      -1.86555369      1.08203168      0.11698475
H      -0.94674376      0.67443833     -1.33080801
