14
b3lypvtz=-226996.71812278
N       1.31540582     -0.40652857     -1.58659518
C       1.57196833      0.15356579     -0.47754594
O       2.85626762      0.48583219     -0.13176937
C       0.53789065      0.48778673      0.51136289
C      -0.77003390      0.25301904      0.37728158
C      -1.47104911     -0.38558275     -0.77461989
O      -2.86334326     -0.41703905     -0.46047488
H       2.16989031     -0.54898539     -2.12244218
H       2.87430337      0.90025447      0.73737337
H       0.87617611      0.96571073      1.42460043
H      -1.43060587      0.54990508      1.18459477
H      -1.27067170      0.17895631     -1.69182392
H      -1.06724728     -1.38935509     -0.94608409
H      -3.32895109     -0.82783949     -1.19355759
