17
b3lypvtz=-191949.47940588
C       1.42641996      0.16769537     -0.52483948
C       0.87288654     -1.14623838      0.09586432
N      -0.59507108     -1.12621406      0.26181265
C      -1.18632542     -0.27200307     -0.83601881
C      -0.82553833      0.97725748     -0.00913226
C      -0.93057367      0.01214894      1.19451368
N       0.56493706      1.34493068     -0.28558048
H       2.42942768      0.37944168     -0.15379086
H       1.52633033      0.03209098     -1.60406021
H       1.30482707     -1.33856214      1.08025806
H       1.14212754     -1.99108048     -0.54294856
H      -0.74940525     -0.39070787     -1.82653290
H      -2.26077262     -0.44335856     -0.89160683
H      -1.46273279      1.86256368     -0.05036501
H      -0.23534174      0.15467411      2.02410947
H      -1.94422191     -0.11401912      1.58044637
H       0.92302664      1.89138075      0.48787086
