18
b3lypvtz=-205215.54129866
C       1.83743389     -0.04647066      0.93982400
C       0.94603489     -0.38378289      0.00125937
N       0.95931796     -1.60161032     -0.67920914
C      -0.13201785      0.58002445     -0.47396771
O       0.29147738      1.93701124     -0.40406370
C      -1.42855253      0.50933606      0.34196662
C      -2.14758838     -0.83749194      0.30972588
H       2.60612731     -0.73388283      1.26777338
H       1.80929006      0.93256438      1.39120258
H       0.07701835     -1.89987012     -1.06237181
H       1.44279929     -2.35300083     -0.21213283
H      -0.36216406      0.32084650     -1.51839981
H       1.19783926      1.98164213     -0.72632212
H      -1.18727533      0.78315712      1.37070359
H      -2.08632653      1.28883929     -0.04875277
H      -1.55073757     -1.62852255      0.76601673
H      -2.39215722     -1.14036019     -0.71213968
H      -3.08658093     -0.78049885      0.86131942
