15
b3lypvtz=-191221.03158809
N      -2.37019243     -0.13482089     -0.07866758
C      -1.10619472     -0.00125398      0.01717284
C      -0.37211096      1.26868826     -0.02599727
C       0.96090599      1.30860648      0.03771871
C       1.79965630      0.06842798      0.06708430
N       1.03780425     -1.08047565     -0.39799816
C      -0.25281912     -1.22549765      0.27008748
H      -2.81950483      0.77424369     -0.20475635
H      -0.95509414      2.18190671     -0.07851966
H       1.48229880      2.25807105      0.06841234
H       2.19786411     -0.05153313      1.09347824
H       2.66870429      0.20333330     -0.58235344
H       1.58085249     -1.92863637     -0.31196206
H      -0.77170619     -2.10015530     -0.11646313
H      -0.16332085     -1.34711750      1.36492374
