16
b3lypvtz=-204462.6281917
C       2.03751871     -0.02761132     -0.64516350
C       1.01712275     -0.12735510      0.49094909
C       0.16947829      1.14255566      0.66323876
C      -0.95423280      1.15139245     -0.35840414
O      -1.73083611     -0.05734353     -0.27658365
C      -1.02716811     -1.18750721     -0.01127843
N       0.18558356     -1.32091896      0.30910212
H       1.55371157      0.19287317     -1.59867295
H       2.76601531      0.75883388     -0.43846710
H       2.56780266     -0.97316267     -0.75466435
H       1.57675842     -0.29601413      1.41479214
H       0.77709638      2.04352187      0.55473365
H      -0.26380089      1.15980284      1.66582072
H      -1.65712690      1.96586135     -0.19486870
H      -0.56426838      1.23378280     -1.37662811
H      -1.67498348     -2.05411810     -0.10501155
