14
b3lypvtz=-201285.9686964
C      -3.41415960     -0.11329251     -0.00012885
N      -2.21354943     -0.53353001     -0.00007812
C      -1.17117803      0.37737833     -0.00005486
C       0.09600779     -0.06837589     -0.00002128
N       1.21481627      0.73372415      0.00000443
C       2.53607838      0.30642149      0.00002240
N       3.01531305     -0.86675776      0.00002373
H      -3.67897160      0.95010297      0.00000905
H      -4.22719729     -0.83196603      0.00002402
H      -1.39281946      1.44774818     -0.00007220
H       0.27053372     -1.13435213     -0.00001667
H       1.07118761      1.73064157     -0.00000127
H       3.22469683      1.14986750      0.00004137
H       2.30300575     -1.59452886      0.00000526
