14
b3lypvtz=-180397.28868235
C      -2.83737120     -0.08540259     -0.00000106
C      -1.65227751     -0.69897683     -0.00000103
C      -0.35180053     -0.03604904      0.00000081
C      -0.28829735      1.46245806      0.00000267
C       0.75738779     -0.80732989      0.00000093
C       2.08315531     -0.30284213      0.00000196
N       3.17184249      0.08250080     -0.00000357
H      -2.93324619      0.99186076      0.00000033
H      -3.75710514     -0.65356914     -0.00000283
H      -1.62504398     -1.78372345     -0.00000242
H       0.73814215      1.82076899     -0.00000137
H      -0.79497598      1.86765154      0.87838975
H      -0.79498405      1.86765441     -0.87837832
H       0.66826219     -1.88677348      0.00000116
