17
b3lypvtz=-171047.73909362
C       1.67371800      0.76672703     -0.51630044
H       1.41156998      0.75167862     -1.56570011
H       1.12155513      1.45589554      0.10956090
C       2.62652919     -0.02775796     -0.03853305
H       3.14179250     -0.68570695     -0.73292572
C       3.07554781     -0.15523281      1.36853479
H       4.14078237     -0.35052199      1.46925186
C       2.40385416      0.61176308      2.46775442
H       1.72976674      1.42947316      2.25842152
C       2.16373087     -0.88806477      2.33737713
H       1.28860401     -1.40404577      1.96881453
C       2.88726767     -1.14590550      3.65897814
H       2.22812216     -1.52158531      4.44010589
H       3.76698192     -1.79053753      3.60556704
C       3.14041919      0.39182859      3.79268184
H       2.61757246      0.81955985      4.64632165
H       4.18108584      0.72083270      3.81978959
