12
b3lypvtz=-249555.74031048
C      -1.29353852     -1.14806394     -0.93922273
N      -1.23482234      0.22865735     -0.49205207
C      -0.15588433      0.84356510     -0.37912513
O      -0.04829847      2.11330546      0.03972436
O       1.10412084      0.37056372     -0.74485192
C       1.96083820      0.01179571      0.25441204
O       1.70628693     -0.00443530      1.41721474
H      -0.32631108     -1.56531158     -1.22947642
H      -1.71581070     -1.76264097     -0.14232721
H      -1.97226249     -1.21486612     -1.79080259
H      -0.93903355      2.40100781      0.28246342
H       2.91471551     -0.27357725     -0.20310421
