18
b3lypvtz=-205213.3692248185
C      -1.77440964      0.99217729      0.93414322
C      -0.79535013     -0.11808644      0.56603911
C      -1.20551052     -0.82811510     -0.72111848
N       0.55401260      0.46293317      0.42078601
H       0.70601821      1.13529970      1.16488022
H       1.63918714      1.04962248     -1.41724317
C       1.63370962     -0.47638524      0.36997705
C       2.51371562     -0.39063712     -0.62829465
O       2.44306150      0.53623825     -1.61169194
H      -1.49249054      1.47578153      1.87265693
H      -2.78197852      0.59381964      1.05641482
H      -1.79926147      1.75433234      0.15272210
H      -0.79593562     -0.86164695      1.37875726
H      -1.27623172     -0.11399507     -1.54426143
H      -0.47898666     -1.59257995     -0.99637157
H      -2.17609760     -1.31165673     -0.59916517
H       1.72656776     -1.25141529      1.12563426
H       3.35997998     -1.05568649     -0.72939114
