18
b3lypvtz=-205221.12989176
C       2.68705822     -0.20085400      0.67370025
C       1.93782409      0.08680743     -0.62691330
C       0.53228428     -0.52136678     -0.69403215
C      -0.47295690      0.08098905      0.30779952
N      -0.66662930      1.50269258      0.06957344
C      -1.74795976     -0.74755084      0.27998783
O      -2.83418281     -0.31940244     -0.01474075
H       3.69980846      0.20283001      0.63459342
H       2.76630735     -1.27497565      0.85945390
H       2.19450785      0.25250614      1.53544986
H       1.86050537      1.16475238     -0.77458568
H       2.51537302     -0.30689557     -1.46737608
H       0.59180411     -1.60220899     -0.53143736
H       0.12677955     -0.38346621     -1.70153509
H      -0.06139899     -0.04638915      1.31702613
H      -1.14449516      1.63306632     -0.81671496
H      -1.28994708      1.88952710      0.76944222
H      -1.61562731     -1.81794940      0.55088979
