16
b3lypvtz=-227727.27867712
C      -2.90372619     -0.49673400     -0.13060635
O      -1.73670155      0.31457586     -0.07396398
N      -0.62529348     -0.49835091      0.17334183
C       0.46336565      0.16803315      0.21126907
C       0.58259062      1.64662940     -0.00443700
C       1.70323236     -0.63901747      0.49475304
O       2.66394644     -0.53815039     -0.55620774
H      -2.83541746     -1.22690345     -0.93973860
H      -3.06369888     -1.01847394      0.81499489
H      -3.72951379      0.18668472     -0.31965430
H      -0.03537842      1.96749433     -0.84205772
H       1.61900237      1.91969752     -0.19055009
H       0.22573735      2.18620371      0.87673716
H       2.20626133     -0.24501450      1.38068802
H       1.41924804     -1.67523827      0.69136981
H       2.28669762     -0.94526574     -1.34292202
