17
b3lypvtz=-215302.3840599
N      -2.21867430     -1.01276318     -0.52317048
C      -1.83784730     -0.32902288      0.71862016
C      -1.18986582      1.02666625      0.43380541
C      -0.07174182      0.97994503     -0.61695490
N       0.92174311     -0.05019845     -0.37515851
C       2.17383487      0.16287523      0.09614286
O       3.00066079     -0.69956407      0.30810223
H      -2.96360811     -0.51136603     -0.99464224
H      -2.57601045     -1.93919931     -0.32407996
H      -2.67308239     -0.17834272      1.41501204
H      -1.11634618     -0.96664094      1.23326940
H      -0.79854731      1.42411326      1.37388376
H      -1.94851616      1.73613255      0.08642650
H       0.44136717      1.94256817     -0.64607007
H      -0.50298617      0.81543829     -1.60426058
H       0.66713456     -1.00644657     -0.57467123
H       2.37653951      1.23685436      0.26985663
