18
b3lypvtz=-181896.78481287
N      -3.26128086      0.38693448     -0.17177659
C      -2.26145196     -0.23031809      0.29924280
C      -0.81982537      0.20103754      0.31141435
C       0.08003965     -0.80687173     -0.41976613
C       1.57294495     -0.52714965     -0.39516389
C       2.29803371      0.01756266      0.80499430
C       2.16488644      0.85539205     -0.44257509
H      -2.97690725      1.28358326     -0.57491929
H      -2.45680442     -1.20640468      0.75423656
H      -0.50285962      0.28353086      1.35649109
H      -0.73852829      1.19469600     -0.13492187
H      -0.08968713     -1.80027510      0.00837770
H      -0.24542147     -0.86784528     -1.46274649
H       2.13093461     -1.27018381     -0.95364668
H       3.26692232     -0.39700613      1.04675872
H       1.72111699      0.31589078      1.66965840
H       3.04323771      1.01342089     -1.05302204
H       1.50007800      1.70701497     -0.40189883
