17
b3lypvtz=-191978.50466207
C      -2.37626596     -0.62688547      0.17311119
N      -1.12382445     -0.13531008     -0.36537650
C       0.03026496     -0.92923284     -0.12786096
C       1.13917739     -0.19899754      0.03754702
N       2.48191345     -0.60334004      0.03718600
C       0.77748483      1.26355880     -0.07571639
C      -0.74898420      1.21369708      0.09131393
H      -3.19338712      0.02011931     -0.14954637
H      -2.38388465     -0.66721216      1.27590709
H      -2.57559493     -1.62929800     -0.20754333
H      -0.05061519     -2.00461080     -0.19559540
H       3.04220927     -0.11565424      0.72398115
H       2.60060002     -1.60012276      0.15268015
H       1.25847312      1.89871912      0.67177239
H       1.06992933      1.64252328     -1.06198702
H      -1.00228615      1.32607016      1.15774124
H      -1.28157672      1.98227020     -0.46884217
