12
b3lypvtz=-200536.6094768
C      -1.31611206     -0.26759868     -0.18998117
C      -0.51920858     -1.47463024      0.22797313
N       0.73342932     -1.30137805      0.42675708
C       1.03179124      0.07130020      0.17957475
N       2.15889008      0.63288324      0.26882782
C      -0.23458208      0.78775203     -0.21868716
N      -0.38197836      2.00471843     -0.51593056
H      -2.11254269     -0.03240488      0.52045225
H      -1.79362425     -0.40486816     -1.16337432
H      -0.96253210     -2.45694736      0.36144117
H       2.87310420     -0.03800287      0.55241685
H       0.52336528      2.47917631     -0.44946985
