19
b3lypvtz=-195142.91574347
C      -2.23156737      0.66048836     -0.12057166
C      -1.38919191     -0.57848728      0.02426634
C      -1.86929299     -1.69356965      0.56986719
C       0.02857069     -0.50051426     -0.49052255
C       0.93988427      0.43843180      0.31628596
C       2.37110163      0.45106398     -0.20955790
O       3.21152763      1.36842352      0.48371131
H      -3.24228146      0.50187619      0.25315264
H      -1.80030500      1.50604791      0.42091890
H      -2.29799103      0.96328441     -1.16989430
H      -2.88429066     -1.75303401      0.94226192
H      -1.26333038     -2.58650175      0.66141224
H       0.01247624     -0.15986279     -1.53259828
H       0.46188948     -1.50340272     -0.49620803
H       0.94247135      0.12105893      1.36462499
H       0.55835707      1.46120699      0.29631172
H       2.79253476     -0.56204893     -0.18049152
H       2.38573161      0.77591059     -1.25157209
H       3.27370606      1.08962872      1.40244757
