15
b3lypvtz=-214532.48215678
C      -0.38722886      1.99603507      0.40371429
N      -0.00070405      0.97003335     -0.57734700
C       0.12330171     -0.34287290     -0.05691654
C       1.44160795     -0.89638755      0.16740602
O       2.48036409     -0.29910977     -0.06231332
C      -0.96985484     -1.11767526      0.15554425
N      -2.24632756     -0.71049017     -0.08938384
H      -1.38359624      1.78580402      0.79307548
H       0.30177247      2.06158723      1.25359444
H      -0.41960668      2.96526650     -0.09404683
H       0.89505808      1.22205552     -0.98073181
H       1.45799554     -1.94084111      0.54029121
H      -0.85166118     -2.10547029      0.58162237
H      -2.96557806     -1.40870070     -0.15854630
H      -2.33817736      0.07664406     -0.71583642
