18
b3lypvtz=-181894.30980883
C       3.21522893      0.01440868      0.14281832
C       1.77295031     -0.36833114     -0.00207192
C       0.78053794      0.51174815     -0.17826013
N      -0.55209240      0.21745711     -0.39024905
C      -1.67688742      1.00928069      0.13679433
C      -2.52158771     -0.28850692      0.16572540
C      -1.19524007     -1.05651119     -0.04779769
H       3.64111400     -0.35851676      1.07925452
H       3.34138451      1.09858661      0.13110130
H       3.82954661     -0.39720437     -0.66452689
H       1.54206552     -1.42884668      0.01159692
H       0.99430391      1.57699857     -0.20417192
H      -1.48918582      1.41952127      1.13608653
H      -2.01584292      1.81279309     -0.51978858
H      -3.20482062     -0.37210430     -0.67647727
H      -3.05709202     -0.49451699      1.08861763
H      -0.79547936     -1.49842477      0.87420240
H      -1.16883738     -1.80917504     -0.83789290
