12
b3lypvtz=-254524.03619727
C       0.05824952      1.23139500     -0.84467365
C      -0.02985796     -0.07064578     -0.14967440
O      -0.78560486      0.20729309     -1.33852018
C      -0.80303969     -0.19813183      1.12965309
F      -1.46243983     -1.42043740      1.15949364
C       1.11655219     -1.01442309     -0.37011334
O       1.69061131     -1.58837722      0.51584526
H       0.93088203      1.45637515     -1.45014709
H      -0.44094462      2.08777886     -0.40228333
H      -1.55174899      0.59137479      1.20245631
H      -0.12509760     -0.15907001      1.98361044
H       1.40243850     -1.12313154     -1.43564676
