12
b3lypvtz=-226203.18628365
N       1.65779267      1.37318259      0.84033572
C       0.95596452      0.53085012      0.24312211
O       1.28392058     -0.40096412     -0.74719945
C      -0.13165845     -0.66659318     -0.98411326
C      -0.71646104     -1.26790799      0.24773435
C      -0.50791370      0.22904252      0.18690553
O      -1.53911226      1.09139111      0.45557724
H       2.63646031      1.32508492      0.56089689
H      -0.46545283     -0.74912003     -2.00573058
H      -1.76342326     -1.53636332      0.17220400
H      -0.11299875     -1.89970981      0.88781561
H      -1.29711778      1.97110720      0.14245183
