19
b3lypvtz=-195131.76427261
C       1.44675343      1.14043055     -0.69213622
C       0.65223412      0.02330687      0.00384408
C       1.32171375     -1.33703792     -0.26218192
C       0.59879329      0.27805854      1.51589998
C      -0.73766739     -0.01996134     -0.62109774
C      -1.93916443      0.61794575     -0.07707803
O      -1.75113697     -0.79999449      0.02225991
H       0.98575453      2.11626598     -0.52704168
H       2.46714704      1.18224333     -0.30667435
H       1.50661960      0.97418551     -1.77005406
H       0.76063465     -2.14380388      0.21121315
H       1.37666362     -1.54757940     -1.33254528
H       2.33891804     -1.35089202      0.13373688
H      -0.05685563     -0.43935006      2.00983198
H       1.59634814      0.17836586      1.94673315
H       0.24372258      1.28405868      1.74475591
H      -0.71521725     -0.16579812     -1.70064928
H      -1.89644298      1.15219284      0.86497844
H      -2.73067815      0.93161632     -0.75062090
