18
b3lypvtz=-181916.17113449
C       3.29954762     -0.33827485      0.01082152
C       1.92118754      0.24105934      0.07356140
C       0.79398558     -0.45919457     -0.07929679
C      -0.56973738      0.06824709     -0.03287212
N      -0.70156275      1.45978873      0.05746559
C      -1.62122834     -0.77537856     -0.01337731
C      -3.06271790     -0.37011056      0.03196977
H       3.89421131      0.13403971     -0.77691598
H       3.84034292     -0.17312921      0.94739780
H       3.27602267     -1.41133999     -0.18195005
H       1.86228190      1.30420515      0.28501772
H       0.85965969     -1.52808668     -0.25414162
H      -0.05008997      1.97215183     -0.51889752
H      -1.64189508      1.79988356     -0.06927684
H      -1.40218206     -1.83468099      0.00716297
H      -3.70118304     -1.15206786     -0.38085758
H      -3.25625538      0.53915064     -0.54614538
H      -3.41362231     -0.17836779      1.05252943
