17
b3lypvtz=-191989.1641404
C      -2.26016696     -0.52028500      0.64864451
C      -1.52301722      0.06759634     -0.56451886
C      -0.15023071      0.59387146     -0.21377378
N       0.13573714      1.81840767     -0.00718544
C       0.97548336     -0.39652160     -0.07917954
C       2.31613909      0.13960170      0.34680923
N       0.71701334     -1.61598141     -0.34097406
H      -1.72321009     -1.38036720      1.04534997
H      -3.25973588     -0.84852142      0.36079844
H      -2.36540632      0.22011057      1.44358780
H      -2.10290058      0.89233269     -0.98526985
H      -1.42659076     -0.70379137     -1.32782957
H      -0.68752171      2.40950676     -0.13143300
H       3.04568324     -0.66732316      0.40975379
H       2.24016510      0.63815130      1.31355823
H       2.66732987      0.89525424     -0.35607953
H       1.54676109     -2.19811055     -0.22397937
