10
b3lypvtz=-246392.07347414
C      -0.48613934     -0.24732744     -0.07893376
N       0.50879457      0.68358486      0.05542202
C       1.72174817      0.00612368      0.12612093
O       2.82938316      0.44938724      0.22035973
O       1.38622872     -1.31251823      0.06543336
N      -0.03789129     -1.45856498     -0.05082907
N      -1.80002429      0.09725125     -0.28730947
H       0.43881805      1.67837388     -0.06630503
H      -2.40639955     -0.71045102     -0.31363067
H      -2.15451819      0.81414076      0.32967196
