15
b3lypvtz=-212093.1728118473
C       3.28828867      0.08901734     -0.07444733
N       2.08652318     -0.21124895     -0.43825248
C       0.96946349      0.22821421      0.14634230
N      -0.20939896     -0.16710649     -0.48264370
C      -1.45100702     -0.10251555     -0.06130780
N      -2.52941785     -0.62836590     -0.77361487
N      -1.73338949      0.50983450      1.14168832
H       3.51135847      0.73412195      0.77901829
H       4.12143425     -0.31801522     -0.63347795
H       0.90583983      1.02303002      0.88046230
H      -0.02986086     -0.63000634     -1.36566112
H      -2.26024554     -1.25407234     -1.51902470
H      -3.17556489      0.07092701     -1.12501742
H      -2.55748552      0.12425129      1.58294013
H      -0.93653778      0.53193448      1.77134704
