16
b3lypvtz=-204454.07083873
C      -0.76537831     -1.77042078      0.19940873
C      -0.80063997     -0.28496402      0.01304084
O      -2.05622940      0.23265486     -0.18491389
C       0.23568188      0.57386785      0.05839192
C       0.01861225      2.06597281     -0.00546480
C       1.63049827      0.13598881      0.22253377
N       2.25154848     -0.85841298     -0.27808897
H      -0.96151149     -2.29527984     -0.73994634
H       0.18847381     -2.11246546      0.59019462
H      -1.54719270     -2.06792220      0.90663292
H      -2.71291172     -0.45815888     -0.05485347
H       0.71616836      2.57795740      0.66117322
H      -0.99545966      2.33835803      0.27797895
H       0.19800679      2.45470006     -1.01194325
H       2.22659219      0.79638514      0.86009107
H       1.64543522     -1.38273279     -0.91062932
