20
b3lypvtz=-182659.12547157
C       2.77172684      0.03219810     -0.78962571
C       1.74058406      0.53006039      0.21590458
N       0.61871338     -0.37868242      0.33730805
C      -0.35850753     -0.46299629     -0.76853217
C      -1.48705584     -0.61683677      0.27910319
C      -0.46157218     -0.03667165      1.28218863
C      -2.80452219      0.10204127      0.06402003
H       3.15206444     -0.94656060     -0.49521928
H       2.33733349     -0.06125674     -1.78686147
H       3.61085719      0.72629127     -0.85826223
H       2.20247272      0.61922762      1.20317304
H       1.40423187      1.54444733     -0.06918683
H      -0.19537902     -1.27656454     -1.47742664
H      -0.45294855      0.48216265     -1.32632839
H      -1.65942775     -1.67291600      0.48931410
H      -0.37749618     -0.49745032      2.26871541
H      -0.59358693      1.04944237      1.40652417
H      -3.35655259     -0.32673572     -0.77558434
H      -2.64797945      1.16201559     -0.14675816
H      -3.44295578      0.02878447      0.94753403
