15
b3lypvtz=-237850.2826005
N      -0.32552741     -1.77447981     -0.10690949
C      -0.91218905     -0.55706566     -0.04199510
O      -2.09636033     -0.40032888      0.20713989
C       0.00861097      0.64342793     -0.34872114
N      -0.67834150      1.87646092      0.01169208
C       1.34812849      0.59490103      0.39632018
O       2.15663614     -0.46767546     -0.13135025
H       0.67527062     -1.85008973     -0.20518651
H      -0.88235984     -2.58031378      0.12051680
H       0.23708837      0.58150381     -1.42085840
H      -0.63330381      2.55380300     -0.73631264
H      -1.65515331      1.65401651      0.17820727
H       1.84376393      1.55777982      0.25204370
H       1.16686635      0.46242208      1.46737350
H       2.98397136     -0.50019878      0.35634013
