16
b3lypvtz=-181160.340554
C       2.56493480     -0.54861533      0.00429304
C       1.15414099     -0.05468206      0.00109617
C       0.73622270      1.22422371     -0.00040911
C      -0.76902446      1.25638370     -0.00240290
C      -1.14000673     -0.20659083      0.00747577
N      -2.46174679     -0.61482169     -0.07347783
C      -0.01100452     -0.94898004      0.00701568
H       3.27595710      0.27728326      0.00726939
H       2.76287325     -1.17148878      0.88134212
H       2.76743213     -1.16857947     -0.87373434
H       1.35815198      2.10611527      0.00826373
H      -1.17777781      1.78055915      0.86962269
H      -1.17916507      1.75411497     -0.88740601
H      -3.13332532      0.00088877      0.35766682
H      -2.63109837     -1.57980484      0.16437927
H       0.04303313     -2.02881277      0.00182453
