15
b3lypvtz=-191241.01898848
C      -2.32296217     -0.44863541     -0.39446857
C      -0.89794944     -0.08528260     -0.14503977
C       0.25891864     -0.80806306     -0.34163641
C       1.36017382      0.00102843      0.06313996
N       2.71840375     -0.35403413     -0.05617408
C       0.84429064      1.19976130      0.49671994
N      -0.53266481      1.13161868      0.35639166
H      -1.16959317      1.86565859      0.60517749
H      -2.38445209     -1.45827303     -0.79728731
H      -2.79719131      0.22379417     -1.11526226
H      -2.92024610     -0.42158168      0.52173405
H       0.31314955     -1.80670812     -0.74429809
H       3.32139054      0.20741340      0.52790410
H       2.87968997     -1.32982543      0.14959266
H       1.32924220      2.08302889      0.87360663
