14
b3lypvtz=-224576.73632065
N       2.88004770     -0.57442895     -0.06159695
C       1.70856531      0.13965547     -0.09547043
C       0.48049230     -0.34932310      0.15675417
C      -0.72584173      0.44778168      0.04959763
N      -0.59472848      1.84475642     -0.04415864
N      -1.92967374     -0.00738417      0.00070096
O      -1.95158102     -1.42844489     -0.07368060
H       3.74127993     -0.06355567      0.01509511
H       2.87801099     -1.46622167      0.40509038
H       1.82349025      1.16530993     -0.42431217
H       0.34429839     -1.38859328      0.42083515
H      -0.05766657      2.23912315      0.71707378
H      -1.50409555      2.28428729     -0.10092118
H      -2.89550578     -1.60651320     -0.05651522
