17
b3lypvtz=-215284.13857561
C       2.30916920      1.25577403     -0.49066889
C       1.38804287      0.32963230      0.29254071
N       1.98473858     -1.01489333      0.33267799
N       0.06950593      0.31442959     -0.32544167
C      -0.97360394     -0.37365692      0.41596047
C      -2.34876360      0.04308161     -0.06951724
O      -3.31348938     -0.67521492     -0.07394666
H       1.87417092      2.25130006     -0.55610345
H       3.28614151      1.33279453     -0.01029652
H       2.45990368      0.87025418     -1.50089116
H       1.23854423      0.74867947      1.29755865
H       1.51921979     -1.60182618      1.01527156
H       2.95967377     -0.96850710      0.60583963
H       0.15597988     -0.08528264     -1.25424175
H      -0.91755512     -0.05146672      1.46389609
H      -0.92397936     -1.46976120      0.40989497
H      -2.39948196      1.09406524     -0.42152972
