18
b3lypvtz=-205204.70182551
C       2.13035397     -0.01984940     -0.38214641
C       0.67313599      0.04738292      0.02107648
C       0.03891802      1.40817813     -0.26065583
O      -1.25842753      1.59122022      0.26837718
C       0.21955718     -0.71987772      1.23326999
C      -0.15867733     -1.20424237     -0.14387333
N      -1.54652801     -1.08339904     -0.55274942
H       2.26108720      0.22929494     -1.43888493
H       2.54295281     -1.01704967     -0.22316418
H       2.72975411      0.68328080      0.20150317
H       0.66930733      2.18481010      0.18069347
H       0.04748306      1.57455436     -1.34907051
H      -1.76895195      0.81187450     -0.01259606
H       0.94816541     -1.29218351      1.79173566
H      -0.56686929     -0.26924190      1.82264978
H       0.37619100     -2.08189599     -0.49959497
H      -2.11439428     -1.80810989     -0.12900270
H      -1.63786369     -1.17678047     -1.55756737
