12
b3lypvtz=-223834.59582571
C       2.51010730      0.37368144      0.05499582
N       1.41311575     -0.56834985     -0.10006565
C       0.13187379     -0.16604409     -0.03042346
N      -0.32629286      1.05996134     -0.01448540
C      -1.67510787      0.83863510      0.01817864
N      -2.06511978     -0.39964943      0.03030632
O      -0.82095554     -1.10824411     -0.00182814
H       3.42794584     -0.10010954     -0.28668432
H       2.31777425      1.25202895     -0.55677427
H       2.63726203      0.69739571      1.09141442
H       1.58278342     -1.54466614      0.06989119
H      -2.40041233      1.63744363      0.03664286
