14
b3lypvtz=-203653.43801454
N       2.78178390     -0.21328493     -0.16979007
C       1.56428335     -0.35003524     -0.49660298
C       0.35754125      0.07009579      0.28351978
C      -0.66780380      1.06485503     -0.39327620
C      -1.74989961     -0.00232037     -0.22666830
O      -1.30441049     -1.16457636     -0.93819080
C      -0.80320059     -0.94428305      0.38341553
H       2.86425467      0.24408222      0.74222301
H       1.35189839     -0.82552552     -1.45580375
H       0.64960569      0.43506907      1.26971683
H      -0.46255808      1.35271627     -1.42349584
H      -0.82372205      1.95504438      0.21355191
H      -2.81574348      0.11479298     -0.09380601
H      -0.94212916     -1.73663026      1.10550690
