15
b3lypvtz=-212088.58729264
C      -1.44787613      1.76239109      0.12166204
C      -0.74527937      0.62960737     -0.04908547
N       0.64820822      0.73809580      0.15605934
N       1.32496647     -0.25107127     -0.19409737
N       2.63864579     -0.10498434      0.06762540
N      -1.31367080     -0.57261840     -0.48549480
C      -1.16318054     -1.79025344      0.31757299
H      -0.93356149      2.68323615      0.34558338
H      -2.52219312      1.78338566      0.00659099
H       3.21446185     -0.68491431     -0.51982825
H       2.94819566      0.85048553      0.22285747
H      -2.28253396     -0.41937798     -0.72424514
H      -0.12640296     -2.11111935      0.32257706
H      -1.76034366     -2.57619722     -0.14383444
H      -1.49865795     -1.66453129      1.35472681
