17
b3lypvtz=-194405.56524797
C      -1.88583666     -0.43308710      0.95593125
C      -0.82624259      0.03218890     -0.03406397
C       0.17119619     -1.01822573     -0.54349504
C       1.37264663     -0.19313023     -1.04475722
C       1.48807418      0.94898839     -0.02692761
C       0.07064807      1.15267542      0.50474779
O      -0.28457715      2.04075264      1.23823403
H      -2.45361937      0.41715080      1.33282856
H      -1.42498036     -0.93197132      1.81100964
H      -2.57961399     -1.13477580      0.49101202
H      -1.32627857      0.47787417     -0.90554587
H       0.48054078     -1.65922216      0.28798690
H      -0.24828379     -1.66640809     -1.31266180
H       2.28351627     -0.78443104     -1.12883735
H       1.15571603      0.20943762     -2.03709349
H       1.89659176      1.88175744     -0.41412735
H       2.11050257      0.66052609      0.82605951
