18
b3lypvtz=-228515.2498285
N      -2.46018990     -0.41703625     -0.85155027
C      -1.96667864     -0.32669180      0.52791788
C      -0.83239670      0.69459364      0.63819976
C       0.42440838      0.35056549     -0.16299482
O       1.32925461      1.47237801     -0.19930762
C       1.23889827     -0.78148502      0.44656960
O       2.39753508     -1.06523827     -0.31779913
H      -3.10810247     -1.18871276     -0.95146811
H      -2.97010941      0.42373811     -1.09902766
H      -2.74627508     -0.06000830      1.25444607
H      -1.60685221     -1.31684529      0.81508971
H      -0.56277081      0.83076764      1.68929326
H      -1.20218051      1.66604909      0.29195971
H       0.14478793      0.06945221     -1.18103793
H       1.01817925      2.09972992     -0.85749054
H       0.65076780     -1.69865938      0.47884444
H       1.50464133     -0.50886320      1.47756699
H       2.81877910     -0.21344085     -0.48438037
