16
b3lypvtz=-181157.46327874
C       2.34621584     -0.04952258     -0.24384518
C       1.04375977      0.00686619      0.05576257
C       0.21203466     -1.20246841      0.41076557
C      -1.16816943     -1.18899053     -0.26886799
C      -1.80979573      0.16424976     -0.12280745
C      -1.05262774      1.24977920      0.05307240
N       0.33600418      1.20265050      0.13228076
H       2.92090743      0.83986260     -0.46955002
H       2.86746547     -0.99426714     -0.24789470
H       0.05868246     -1.19561969      1.49492548
H       0.76679086     -2.10689087      0.16676081
H      -1.79614631     -1.96414125      0.17607011
H      -1.06638319     -1.45216536     -1.32832221
H      -2.88473599      0.26457797     -0.15964452
H      -1.47459427      2.24025581      0.15542285
H       0.84547700      2.05617179     -0.01676050
