15
b3lypvtz=-240210.76535366
O      -2.17107561     -0.30368541      0.24571952
C      -0.92769705     -0.41619782     -0.42795724
C       0.28214931     -1.02831142      0.31270572
C       1.13587594      0.12777687     -0.27367447
O       2.10795150      0.74628088      0.53051717
C      -0.16642651      0.93975725     -0.49559044
O      -0.48282489      1.75490123      0.60596084
H      -2.33076409     -1.10552223      0.75131209
H      -1.07187140     -0.85145541     -1.41987519
H       0.17971447     -0.88926393      1.38913349
H       0.56279805     -2.05729484      0.08949419
H       1.54937014     -0.15625100     -1.24748039
H       2.92717446      0.24738105      0.46313111
H      -0.23240220      1.50774946     -1.42743011
H      -1.36197211      1.48403531      0.90403371
