15
b3lypvtz=-193581.5273809
C      -1.40203490      1.10365642      0.22216049
C      -0.93200920     -0.28321396      0.58633850
O      -1.21463755     -1.26029333     -0.44867294
C       0.18143622     -1.55769600     -0.64058556
C       0.59725111     -0.61062823      0.51292111
C       1.53539771      0.45063880      0.21574127
C       2.31566321      1.32633115     -0.04000078
H      -1.14613628      1.81421378      1.01055134
H      -0.94907037      1.44313995     -0.70885675
H      -2.48629716      1.09935683      0.10121084
H      -1.37669991     -0.60036294      1.53364547
H       0.40382740     -2.61444143     -0.47978994
H       0.53475996     -1.25319923     -1.62763886
H       0.93132634     -1.15679066      1.39491814
H       3.00732342      2.09938885     -0.26424234
