12
b3lypvtz=-249561.55730447388
C       1.24068910     -0.80577751      0.12116048
C       1.40615401      0.66859827     -0.19641560
O       2.41033691      1.30896932     -0.27576163
O       0.16231846      1.17400662     -0.39094008
C      -0.81659873      0.11479423     -0.33006161
O      -0.15203915     -0.96279943      0.32902639
N      -1.96893054      0.55682547      0.33671904
H       1.60852636     -1.41003841     -0.71672154
H       1.78947151     -1.07901881      1.02071804
H      -1.07163579     -0.16474602     -1.35689221
H      -2.77657299     -0.00874279      0.12089946
H      -1.83171916      0.60792905      1.33826927
