19
b3lypvtz=-195141.33566834
C      -2.97281785     -0.92200655     -0.06205557
C      -2.03782978      0.15174382      0.50898070
C      -1.14935351      0.76386486     -0.53279228
C       0.17806420      0.83585746     -0.48340442
O       0.91094361      0.39811644      0.58036483
C       2.30817689      0.21425523      0.34785280
C       2.61410378     -1.10920691     -0.33405676
H      -3.63149130     -1.32093387      0.71157287
H      -2.40336757     -1.75220924     -0.48316147
H      -3.60160449     -0.51540720     -0.85727786
H      -2.64649699      0.93589395      0.97346509
H      -1.42535872     -0.27290791      1.30480598
H      -1.62189470      1.19315859     -1.40881515
H       0.75411332      1.28941004     -1.28554707
H       2.69348325      1.05467797     -0.24046101
H       2.77182454      0.25740775      1.33314155
H       2.24182793     -1.94227998      0.26279349
H       3.69227209     -1.22873663     -0.45865437
H       2.14997229     -1.16082882     -1.31985535
