16
b3lypvtz=-202051.575065
C       1.63643329     -1.43452044     -0.00003092
C       1.24136885      0.02078673      0.00002667
N       2.05861176      0.99253658      0.00008692
C      -0.24109076      0.37849051     -0.00000083
N      -0.63720745      1.58176380     -0.00003010
C      -1.26412855     -0.74845412      0.00003227
N      -2.66082239     -0.35145714      0.00000037
H       1.23898529     -1.95054969     -0.87632325
H       2.72065348     -1.53899178     -0.00008413
H       1.23906921     -1.95058250      0.87628133
H       3.02638694      0.67337332      0.00008872
H       0.17828529      2.20083525     -0.00003725
H      -1.08245562     -1.38892778      0.86935133
H      -1.08243689     -1.38899463     -0.86923225
H      -2.83228676      0.24767397     -0.80068881
H      -2.83230970      0.24772292      0.80064791
