12
b3lypvtz=-249566.67847204
N      -1.24272917     -0.75956832      1.01517642
C      -0.50890876     -0.96328892     -0.09669034
O      -0.21899607     -2.04618445     -0.56860190
C      -0.00402843      0.32974758     -0.76724021
O      -0.50697514      1.50390081     -0.18768582
C       1.51429518      0.32498379     -0.74149646
O       2.12446522      1.27733070     -0.32271936
H      -1.47944773      0.17988170      1.28548869
H      -1.64465570     -1.55055917      1.48793088
H      -0.30756953      0.24452616     -1.81944904
H       0.26912605      2.04442758      0.03742185
H       2.00552408     -0.58529747     -1.11623470
