15
b3lypvtz=-237797.43930607
N       2.49692357     -0.13974160      0.45292496
C       1.57696456      0.29138048     -0.60537403
C       0.15901392      0.21217205     -0.10964941
C      -0.38677686     -1.11128635      0.38300564
O      -1.48281320     -1.56709204     -0.39867380
N      -0.51300166      1.29365197     -0.15129733
O      -1.83776476      1.10441160      0.32513842
H       2.58877602      0.58358049      1.15608283
H       3.42064481     -0.31075004      0.07652015
H       1.75962331      1.29832890     -0.99359433
H       1.67959649     -0.40933490     -1.43913476
H      -0.66349753     -1.01008974      1.43868747
H       0.39132155     -1.86762479      0.31745575
H      -2.17177417     -0.89651641     -0.32510026
H      -2.21721207      1.98369138      0.23684170
