17
b3lypvtz=-194388.53366193
C      -1.33472206      0.98697253      0.53736853
C      -0.78996823     -0.27806677     -0.06646824
C      -1.82900829     -1.15781592     -0.70950546
C       0.49472384     -0.64568663     -0.05034667
C       1.67009858      0.09622311      0.52882186
C       2.53596207      0.66011778     -0.58066030
O       3.67489999      0.33744154     -0.79586174
H      -0.57923278      1.59673292      1.02747066
H      -2.11023085      0.75364053      1.27273212
H      -1.81314997      1.60151498     -0.23072130
H      -2.35643920     -0.62136192     -1.50384995
H      -2.58819861     -1.45930188      0.01842766
H      -1.39073225     -2.05782960     -1.13870825
H       0.75448265     -1.58635649     -0.52624427
H       1.34435165      0.93223790      1.15204855
H       2.29131747     -0.56503473      1.13520129
H       2.02574599      1.40667264     -1.22560449
