16
b3lypvtz=-204466.78761315
C      -1.41521150      1.26602991     -0.01915353
C      -0.57259038      0.00009052      0.03467839
C      -1.41833153     -1.26311058     -0.03228531
C       0.45477946     -0.00712230      1.20471897
N       1.78352026     -0.00399420      0.57558901
C       1.57518550      0.00245524     -0.67079046
O       0.31000716      0.00521647     -1.14769991
H      -2.02717101      1.28743147     -0.92142942
H      -2.07785710      1.31432769      0.84701353
H      -0.77870954      2.15121923     -0.01236766
H      -2.03074188     -1.27342642     -0.93445497
H      -2.08073779     -1.31897505      0.83360945
H      -0.78401444     -2.14988286     -0.03520999
H       0.35001661     -0.89071404      1.83786050
H       0.35060065      0.86908502      1.84807268
H       2.34518954      0.00618888     -1.43178926
