11
b3lypvtz=-215384.64248843
C       2.59649263     -0.11777546     -0.25523232
C       1.45789162     -0.23727085      0.09996972
C       0.08269563     -0.40750885      0.51539729
C      -1.02227490     -0.27451511     -0.55579824
C      -1.47258544      0.91537134      0.28023920
O      -2.33955488      1.72355358      0.26432656
O      -0.46486237      0.78226089      1.20702755
H       3.60609760     -0.00556887     -0.56455562
H      -0.02616571     -1.27371851      1.16684105
H      -0.67838924     -0.01443991     -1.55331499
H      -1.73934494     -1.09038825     -0.60490019
