17
b3lypvtz=-191992.56008362
C       2.42941425     -0.52129301     -0.17621079
C       0.97292397     -0.97526795     -0.22377897
C       0.01739966     -0.10008234      0.61278854
C       0.03770810      1.29694384      0.16698231
N       0.02242807      2.38851292     -0.19859559
C      -1.43763906     -0.62119226      0.61078698
N      -2.00665466     -0.60591231     -0.73318566
H       2.54753205      0.48272039     -0.58577768
H       3.05966350     -1.19338545     -0.75959531
H       2.81316235     -0.51182604      0.84663142
H       0.60854398     -0.99978347     -1.24995476
H       0.88794558     -1.99428825      0.16236702
H       0.36258723     -0.09930183      1.65191577
H      -2.01195274     -0.04449496      1.34712409
H      -1.41188897     -1.65513674      0.95935722
H      -2.87613157     -1.12230932     -0.76014002
H      -2.21313175      0.34255777     -1.02530455
