12
b3lypvtz=-202880.7277618
C       3.09762909      0.11230041     -1.02132210
C       2.02421886      0.15096877     -0.48801932
C       0.74273085      0.23134481      0.15907438
C      -0.43357058     -0.49913987     -0.37413652
O       0.24284946     -0.94233995      0.80758192
C      -1.79683788      0.04469173     -0.17816778
N      -2.67306109     -0.08615109     -1.08186357
H       4.04806859      0.06935660     -1.49241809
H       0.56092620      1.15017678      0.70953854
H      -0.29613757     -1.11798198     -1.25361073
H      -1.96180105      0.54112649      0.78501670
H      -3.55501488      0.34564728     -0.80869375
