16
b3lypvtz=-181151.33145696
C       3.75049057     -0.21917727      0.00152242
C       2.55356346      0.38026482     -0.00057570
C       1.28043411     -0.29900927      0.00129049
C       0.08697654      0.33114093     -0.00108691
C      -1.19730898     -0.31116073      0.00587805
C      -2.36273613      0.36581213      0.00564588
N      -3.62572022     -0.18459815     -0.06502828
H       3.84212109     -1.29882958      0.00476922
H       4.66923844      0.35047110     -0.00011077
H       2.51500200      1.46677531     -0.00406465
H       1.30268010     -1.38573894      0.00442334
H       0.08354125      1.41921653     -0.00672677
H      -1.21685774     -1.39782322      0.00639659
H      -2.35401866      1.45030692      0.00546831
H      -4.38053212      0.36262330      0.31275364
H      -3.70499172     -1.16801889      0.14024214
