15
b3lypvtz=-216890.65422552
C      -1.84575199      0.36582484      0.47488693
C      -0.40528041      0.11761756      0.18519542
C       0.39299110     -0.49590402     -0.96858547
C       0.55958557      0.95941283     -0.57245251
O       1.72238301      1.46942234      0.00795522
C       1.04542527     -1.35463477      0.09483051
O       0.34439127     -0.64093083      1.16224870
H      -2.31044299      0.91298004     -0.34590312
H      -2.38493900     -0.57154114      0.62054479
H      -1.95072622      0.96476282      1.38277771
H       0.08727116     -0.81764771     -1.95321907
H       0.12063748      1.65700961     -1.27537299
H       1.76098619      1.11853105      0.90757820
H       2.13002115     -1.28569569      0.19946308
H       0.73344839     -2.39920692      0.08005261
