18
b3lypvtz=-205205.45005526
N       1.03916058      1.47268731      0.09064208
C       0.23119497      0.26875905     -0.07779719
C       1.09881411     -0.74200083     -0.82738685
O       2.31078019     -1.00093164     -0.14529038
C      -1.21662264      0.34166692     -0.65609139
C      -1.68234266     -0.60683950      0.47846578
C      -0.36140522     -0.30853461      1.23367102
H       1.19190975      1.93772759     -0.79857801
H       0.58831277      2.13673383      0.70761755
H       1.29034042     -0.35662652     -1.84149723
H       0.57616085     -1.69367471     -0.93569900
H       2.59700832     -0.14348678      0.20032749
H      -1.35759369      0.01100544     -1.68683688
H      -1.63368665      1.34433484     -0.55173499
H      -2.60863871     -0.34689615      0.98747975
H      -1.75040546     -1.64381755      0.15267182
H       0.18000582     -1.13963374      1.68224529
H      -0.49299276      0.46952704      1.98789115
