14
b3lypvtz=-231989.93149462
C      -1.52972186     -1.48210678      0.00000360
C      -1.15196091     -0.21193261      0.00000219
F      -2.08805621      0.76435722      0.00000023
C       0.22310871      0.30934822      0.00000286
C       0.49950843      1.61801553      0.00000323
O       1.12944733     -0.70347455      0.00000327
C       2.50475797     -0.35513830      0.00000798
H      -2.57742430     -1.74193633      0.00000302
H      -0.78657973     -2.26169150      0.00000531
H      -0.30937603      2.32892628      0.00000298
H       1.50756426      1.99903510      0.00000360
H       3.05340195     -1.29318199      0.00001001
H       2.76561548      0.22161045      0.89123291
H       2.76562189      0.22161024     -0.89121521
