17
b3lypvtz=-171018.58610160582
C       2.35485567      0.33741224      0.10491854
C       1.14082066     -0.36405449      0.71737371
C      -0.02198323     -0.50037580     -0.25206643
C      -1.40275914     -0.91014664      0.30590593
C      -1.81116961      0.52570133      0.60301395
C      -0.87170500      0.75268943     -0.57328599
C      -2.16056561     -0.04185665     -0.68251825
H       2.73184622     -0.20898179     -0.76273294
H       3.17163153      0.42058521      0.82382511
H       2.10292870      1.34739719     -0.22560186
H       1.43374992     -1.36073701      1.06319202
H       0.80339697      0.18388153      1.60217408
H       0.27462756     -1.06413557     -1.14397688
H      -1.75522593     -1.80742101      0.79636652
H      -2.31508319      1.08932160      1.36527073
H      -0.64231294      1.69253608     -1.05628903
H      -3.03305257     -0.09181564     -1.30586413
