18
b3lypvtz=-205216.5356439
C       1.48600021     -1.56038356      0.03041751
C       1.02740259     -0.12744596      0.00519096
N       2.09891175      0.75923675     -0.14111168
C      -0.23773342      0.30798710      0.18005961
C      -0.57258449      1.78091041      0.12013039
C      -1.39507710     -0.59203400      0.49256416
O      -2.40998986     -0.57621782     -0.52758974
H       2.07641147     -1.78122594     -0.86454308
H       0.66576867     -2.26926029      0.06598288
H       2.13385558     -1.74029331      0.89204766
H       1.86169451      1.70998091     -0.37326952
H       2.87176324      0.41482182     -0.68915064
H      -0.27083947      2.31272998      1.02946914
H      -0.09350071      2.28811875     -0.72340857
H      -1.64611778      1.91664248     -0.00400291
H      -1.91430008     -0.24216045      1.38911185
H      -1.07692194     -1.61723431      0.69068594
H      -1.96959818     -0.74158355     -1.36774897
