16
b3lypvtz=-181095.57572163
C       2.16360397     -0.40114132      1.11878444
C       1.40922682      0.52120602      0.53302706
C       0.07851254      0.26436355     -0.04953246
C      -1.29244728      0.88892335      0.35781795
C      -1.52483077      0.03908160     -0.90852566
C      -0.66408498     -1.08300650     -0.27647620
N      -0.27760792      0.69637007     -1.47950954
H       1.83850235     -1.43179602      1.19661971
H       3.12929930     -0.15964970      1.54238641
H       1.75602295      1.54787078      0.46070166
H      -1.37221265      1.96490443      0.22387690
H      -1.73115670      0.53392940      1.28809994
H      -2.43632917     -0.05797785     -1.49411629
H      -1.05990155     -1.60301482      0.59820991
H      -0.18986086     -1.77185165     -0.97705732
H       0.17326394      0.05178868     -2.13430652
