13
b3lypvtz=-242072.0909895
C      -2.10360720     -0.31879491     -0.47578567
C      -0.84091294      0.32182430     -0.02685318
C       0.37836804     -0.25649251     -0.02855770
N       1.47659272      0.41516964      0.40356170
C       2.64525455     -0.09933350      0.41641529
F       0.51620476     -1.54185526     -0.47244892
O      -0.98744744      1.59426354      0.41079628
H      -2.54637122      0.26109664     -1.28877934
H      -1.93049649     -1.33578150     -0.81502075
H      -2.82622133     -0.33083262      0.34334374
H       3.47174660      0.50248614      0.77654363
H       2.85135963     -1.11450627      0.08263992
H      -0.10446967      1.90275632      0.67414498
