11
b3lypvtz=-262029.24387605
O       2.01098041     -1.22526603      0.52737048
C       1.73010570     -0.26714849     -0.14278622
O       2.60244278      0.47000603     -0.84891991
O       0.51154925      0.25890147     -0.32432823
C      -0.54533062     -0.36033898      0.32678360
C      -1.77882547      0.10833979      0.18878080
O      -2.08448032      1.19360547     -0.57584095
H       3.47121880      0.07363495     -0.70344529
H      -0.30218054     -1.21774188      0.93063931
H      -2.58593963     -0.39239022      0.70706814
H      -3.02954035      1.35849789     -0.53522175
