14
b3lypvtz=-227018.83057145
C      -3.16723272      0.33707828     -0.00005863
C      -1.91948800     -0.48108556     -0.00002323
N      -0.76652674      0.03515182      0.00020650
C       0.41435090     -0.82029264      0.00022691
C       1.69847272      0.01074540     -0.00004772
O       2.78918413     -0.48972641     -0.00015336
O       1.49917028      1.33595486     -0.00014897
H      -3.77527520      0.09875916     -0.87674709
H      -2.93424543      1.39963957      0.00013589
H      -3.77550375      0.09849014      0.87639793
H      -2.05384146     -1.57076761     -0.00021321
H       0.44763658     -1.46794218     -0.87939501
H       0.44780335     -1.46755706      0.88012560
H       0.52863733      1.46549523     -0.00000861
