17
b3lypvtz=-220268.70727026
C      -2.40121323     -0.51608640     -0.35126271
C      -1.79564004      0.59012934     -1.13655846
N      -1.01245983     -0.59100479     -0.78586146
C      -0.00360000     -0.40768262      0.25269255
C       1.33094059      0.00864578     -0.35834587
C       2.43421567      0.16873062      0.66417563
F       2.13234649      1.21233025      1.54888251
H      -2.59326915     -0.32786281      0.70064087
H      -3.08103077     -1.21576754     -0.82082866
H      -2.02816095      0.70917793     -2.18715262
H      -1.58334065      1.51398164     -0.60683735
H      -0.31558145      0.33448944      1.00190210
H       0.11336689     -1.36277596      0.77329473
H       1.21410098      0.94845236     -0.90393090
H       1.64212411     -0.74475647     -1.08734671
H       3.38480993      0.41466765      0.18775575
H       2.56239140     -0.73466844      1.26612591
