10
b3lypvtz=-279687.7984792
N      -2.43977620     -0.74604225     -0.00011795
C      -1.17644134     -0.77371317      0.00004481
C      -0.33897099      0.48769423      0.00015748
O      -0.82670624      1.58964051      0.00009413
C       1.18338114      0.31041771      0.00002370
F       1.54053114     -0.40932221      1.10155281
F       1.54024727     -0.40922269     -1.10167078
H      -2.76287903      0.22828775     -0.00010893
H      -0.65262027     -1.72679952      0.00005628
H       1.71046752      1.26386665     -0.00000956
