16
b3lypvtz=-209464.55947736
F      -2.57999973     -0.49380924     -0.03219369
C      -1.72716804      0.60552227     -0.00352765
C      -0.29604437      0.19912555      0.01537167
C       0.19043990     -1.03832629      0.00144625
C       1.69501612     -1.06003674      0.08353140
C       2.08453751      0.41685612     -0.16933234
C       0.80183972      1.23588910      0.11170683
H      -1.94987430      1.21820604     -0.88384276
H      -1.97770101      1.19583263      0.88492621
H      -0.41735781     -1.93154633     -0.02459689
H       2.02131141     -1.40438880      1.07159754
H       2.14962033     -1.73892332     -0.64145479
H       2.92921374      0.74157501      0.43719545
H       2.37040733      0.54201042     -1.21451989
H       0.67158400      2.06057018     -0.59429812
H       0.81432020      1.68612441      1.11124078
