13
b3lypvtz=-239679.29177454
C      -2.31272916     -0.72754519     -0.42274238
C      -1.25025930     -0.15341130      0.12429433
F      -1.35883678      1.04854582      0.72459161
N       0.02758418     -0.67450618      0.23970272
C       1.20473143      0.02965807     -0.10110760
N       1.30979874      1.19029208     -0.60002660
N       2.32742036     -0.75305874      0.14928887
H      -3.28623305     -0.27618976     -0.31987279
H      -2.21736646     -1.65775299     -0.95995902
H       0.08539153     -1.67237804      0.10929706
H       0.41227221      1.59996309     -0.83347168
H       3.17831323     -0.23288430     -0.00306051
H       2.32071807     -1.23410655      1.03680301
