19
b3lypvtz=-195129.65773586
C       2.10966190     -0.81818117      0.05440181
O       0.93650671     -0.52163325     -0.67711364
C      -0.00630120      0.34942978     -0.04534229
C       0.58623267      1.71599104      0.25490002
C      -0.79618993     -0.37239688      1.09266378
C      -1.90382259     -0.72753132      0.06859534
C      -1.28808885      0.29980575     -0.91465912
H       1.88878220     -1.18018595      1.06478576
H       2.77987788      0.04390716      0.13296913
H       2.62512436     -1.60795802     -0.49011771
H       1.02120012      2.14739327     -0.64921862
H      -0.18815379      2.39177812      0.61907916
H       1.36307319      1.66570663      1.02019475
H      -1.13833661      0.32526181      1.85780103
H      -0.28748248     -1.20160164      1.58234177
H      -1.81970528     -1.74976019     -0.29533417
H      -2.93204859     -0.55235111      0.38134760
H      -1.81839774      1.25214335     -0.91860459
H      -1.12224298     -0.02437838     -1.94040101
