16
b3lypvtz=-227763.95216938
C      -1.08147385      1.70630573     -0.34805474
N      -0.00377501      0.81456054      0.04726422
C      -0.16871641     -0.44063711     -0.04951981
C      -1.37871732     -1.16849078     -0.56569389
O       0.80528368     -1.29845198      0.32945878
C       1.96745565     -0.70539523      0.95258139
O       2.69782094      0.09386288      0.09261204
H      -1.20763751      1.72927861     -1.43594224
H      -0.84011998      2.71752703     -0.02497003
H      -2.04647732      1.43544654      0.09278538
H      -1.66093349     -0.79471297     -1.55057090
H      -2.22880053     -1.00580370      0.10004612
H      -1.18188516     -2.23490694     -0.62850808
H       2.58408952     -1.55252720      1.23912181
H       1.61514244     -0.15625887      1.83001565
H       2.12874435      0.86030345     -0.08062569
