16
b3lypvtz=-202017.36885214
C      -0.19261104      0.83628583     -0.44734696
C      -0.49094708     -0.70656321     -0.50201799
C       1.02727157     -0.95391630     -0.57473520
C       1.31061752      0.51483049     -0.43904050
N       1.68028546     -0.43005215      0.60839809
N      -1.13757435     -1.20492122      0.70313372
N      -0.83777456      1.58551366      0.61569958
H      -0.47629892      1.29189615     -1.39630257
H      -0.99947589     -0.98150836     -1.43202962
H       1.53250440     -1.70234572     -1.16924332
H       2.09920668      1.10910523     -0.88325268
H       1.03868154     -0.43720253      1.39890666
H      -1.97187989     -0.66037614      0.88970377
H      -1.40944816     -2.17556494      0.60832945
H      -0.70406831      2.58161619      0.49537596
H      -0.46848899      1.33320302      1.52442161
