18
b3lypvtz=-228513.6987192
N       2.04437370      0.65294287      1.38423213
C       1.05639360     -0.23045105      0.77110066
C       0.47294108      0.42699713     -0.47599067
O       1.51737158      0.66918040     -1.43215955
C      -0.66363937     -0.37059309     -1.11947798
C      -1.95659476     -0.42032449     -0.31960607
O      -2.44940580      0.91101598     -0.18647999
H       2.74016642      0.90590236      0.69223017
H       2.52487783      0.18946277      2.14493650
H       0.25924313     -0.41177732      1.49603111
H       1.45465800     -1.21879554      0.47997858
H       0.11259597      1.41927340     -0.20789544
H       1.80523085     -0.18073982     -1.78422217
H      -0.87552971      0.08134226     -2.09050352
H      -0.33292116     -1.39922314     -1.30607469
H      -2.68064863     -1.05084393     -0.84906138
H      -1.78740134     -0.87133578      0.66502222
H      -3.24181139      0.89806698      0.35694009
