13
b3lypvtz=-234642.78711396
C      -2.21140209      0.66003868     -0.33376966
N      -1.67262326     -0.68204012     -0.34831308
C      -0.45212606     -0.90997073     -0.13586477
N       0.50319108      0.11790436      0.13232918
N       1.65907106     -0.32572660      0.30259811
N       2.56625953      0.59630648      0.61074092
O      -0.00026559     -2.18390483     -0.16131138
H      -2.67706755      0.85996331     -1.30188927
H      -3.01141090      0.70653680      0.40905906
H      -1.48511099      1.44696332     -0.12117365
H       2.31339653      1.56574049      0.45225556
H       3.51788356      0.30605160      0.46890383
H       0.95020465     -2.15786276      0.02643514
