17
b3lypvtz=-191954.91235153
C       2.19185764      0.99663188      0.05515328
N       1.72819047     -0.28709712      0.56679988
C       0.54179712     -0.78850357     -0.05355462
C      -0.41591837     -1.62779239      0.71053089
C      -0.85338678     -0.24077283      0.26950332
N      -1.78887073     -0.16478371     -0.78611931
C      -2.63936623      0.77129329     -0.79692456
H       3.09834864      1.29123119      0.58412848
H       2.44477412      0.89416556     -1.00183593
H       1.45625276      1.80881185      0.14393942
H       1.63447094     -0.26775446      1.57328737
H       0.67615533     -1.04608229     -1.09741909
H      -0.87724908     -2.46602075      0.20941296
H      -0.24124052     -1.76928747      1.76956703
H      -0.90177151      0.52278520      1.04689076
H      -2.70433953      1.53737240     -0.01506627
H      -3.34970427      0.83570322     -1.61659360
