17
b3lypvtz=-194352.1895243
C       2.14680072     -0.11525067     -0.83090820
C       1.29660574      0.34838027      0.35642344
C      -0.15102204      0.01832046      0.18524068
C      -1.18335663      0.81205340     -0.54953940
C      -1.42931140      0.40838238      0.89178475
C      -1.71838760     -1.08054911      0.94029644
O      -0.51674071     -1.37857053      0.17152296
H       2.05170464     -1.19169950     -0.97515553
H       3.20085121      0.11251618     -0.66689590
H       1.83383387      0.37612845     -1.75365421
H       1.65860829     -0.11953394      1.27598654
H       1.39113654      1.42918926      0.48930631
H      -1.74965906      0.34976253     -1.35011233
H      -0.95626757      1.86124179     -0.69009209
H      -1.60648347      1.12159899      1.68258118
H      -1.64421835     -1.51214686      1.94029549
H      -2.62399416     -1.43982310      0.44481989
