15
b3lypvtz=-191220.3615523
N       3.17246033     -0.26890717     -0.65622073
C       2.17797069     -0.27176455     -0.07711941
C       0.91215447     -0.26605213      0.65520190
C       0.14100986      1.01492360      0.42860069
C      -1.08407869      1.14509205     -0.07344885
C      -2.05099211      0.09258802     -0.55930332
N      -1.96579889     -1.18175879      0.16321390
H       1.14858549     -0.37836320      1.71858089
H       0.31497680     -1.12860082      0.36276715
H       0.67428131      1.91984543      0.69828477
H      -1.45372004      2.16001009     -0.17983645
H      -3.05744630      0.53104085     -0.53668386
H      -1.84152761     -0.11147743     -1.61484306
H      -2.29483508     -1.06676859      1.11520045
H      -2.56226521     -1.87348937     -0.27431805
