13
b3lypvtz=-216169.04654338
O       2.46922246      0.93094338      0.15209776
C       1.33030718      0.51178809      0.12295304
C       0.15411559      1.38398962     -0.02648813
C      -1.06548251      0.85119981     -0.13901119
C      -1.30366379     -0.61891624      0.00973201
O      -0.24851407     -1.28542241      0.67265195
C       1.03377552     -0.98256596      0.14637253
H       0.33717257      2.44783916     -0.10557023
H      -1.93008733      1.47245742     -0.34762327
H      -2.20033157     -0.79804161      0.60563671
H      -1.48644267     -1.06317850     -0.98403492
H       1.76734177     -1.48398573      0.77388927
H       1.14268685     -1.36610705     -0.88050552
