13
b3lypvtz=-213742.77997659
C      -1.57974452      1.47069059     -0.00001660
C      -0.54617816      0.39006413     -0.00009727
C       0.78050023      0.62511423      0.00000345
C       1.83413998     -0.40287485     -0.00009707
O       3.01082846     -0.10895965      0.00001008
N      -0.94545864     -0.97845202     -0.00030990
N      -2.17975361     -1.14124645     -0.00039837
H      -2.22929800      1.38165086      0.87212558
H      -2.22888060      1.38216466     -0.87252718
H      -1.10781073      2.45053707      0.00037323
H       1.14396406      1.64563657      0.00016994
H       1.50274554     -1.45138817     -0.00027468
H      -2.34125899     -2.15718498     -0.00054921
