20
b3lypvtz=-182663.57094948
C       2.27984423     -0.46228838     -0.51998587
C       1.05580382     -0.25078861      0.34826983
C      -0.00000001     -1.37220403      0.47803506
C      -1.05580384     -0.25078863      0.34826991
C      -2.27984434     -0.46228837     -0.51998568
N      -0.00000005      0.62013355     -0.21357531
C      -0.00000008      2.02413114      0.12883894
H       1.98824937     -0.82048203     -1.50816617
H       2.95354104     -1.19371786     -0.06731583
H       2.83866810      0.46766333     -0.64747696
H       1.36295685      0.09459177      1.34892338
H      -0.00000005     -2.03852926     -0.38533527
H       0.00000003     -1.95923174      1.39347718
H      -1.36295679      0.09459176      1.34892349
H      -2.95354114     -1.19371781     -0.06731554
H      -2.83866820      0.46766337     -0.64747671
H      -1.98824963     -0.82048205     -1.50816601
H      -0.88000971      2.51233941     -0.29380226
H      -0.00000004      2.19989789      1.21899914
H       0.88000945      2.51233954     -0.29380233
