20
b3lypvtz=-182674.87190565
C      -3.43503129      0.12707636     -0.16912212
C      -2.09597445     -0.19763962      0.42106494
C      -0.95467258     -0.21187347     -0.27322950
N       0.29628094     -0.61875176      0.17676464
C       1.49703956      0.04485949     -0.33627133
C       2.71894342     -0.81792712     -0.03015397
C       1.66718285      1.47632368      0.18883264
H      -4.12189429     -0.72427190     -0.12073883
H      -3.34547924      0.41530454     -1.21821174
H      -3.92241992      0.95111430      0.36084042
H      -2.07443514     -0.46143388      1.47534815
H      -0.96279444      0.06127304     -1.32515454
H       0.33378888     -0.78798450      1.17341795
H       1.37252659      0.09107311     -1.42248018
H       3.62515238     -0.37109142     -0.44107342
H       2.60016192     -1.81713104     -0.44833903
H       2.86143453     -0.91680941      1.04965149
H       0.78219235      2.07692108     -0.02423742
H       1.81844431      1.47283529      1.27161823
H       2.53037663      1.96464720     -0.26836538
