10
b3lypvtz=-225456.18670047
C       2.94543272      0.02606186     -0.02633046
C       1.75311084     -0.04634425      0.07289756
C       0.32427568     -0.15748176      0.25566344
O      -0.19511627     -0.55590624      1.26441431
O      -0.32147156      0.25104234     -0.86949263
C      -1.72378940      0.25445511     -0.98751158
N      -2.60663507     -0.08109699     -0.17359301
H       4.00228477      0.09040222     -0.11453085
H      -1.94712889      0.62585258     -1.98180882
H      -2.23096281     -0.40698487      0.71289167
