18
b3lypvtz=-205196.66538698
C      -1.92795313      1.18059096      0.00663404
C      -1.05313050     -0.03142089     -0.30496426
N      -1.83114963     -1.25451098     -0.07468661
C       0.26499724      0.01938896      0.47047880
C       1.31498463      1.06569695      0.03940559
O       2.28531175      0.03779376     -0.26426892
C       1.35183382     -1.00727850      0.09031810
H      -1.40766545      2.11505678     -0.20890797
H      -2.20699047      1.19134031      1.06416028
H      -2.84371505      1.14870113     -0.58245939
H      -0.81231217     -0.01583105     -1.37393152
H      -1.29420699     -2.07834667     -0.32000941
H      -2.07282078     -1.34035467      0.90730413
H       0.05167317      0.03973665      1.54146752
H       1.67335810      1.74435660      0.81695735
H       1.05235716      1.64749397     -0.85002155
H       1.11354819     -1.64326222     -0.76943929
H       1.73482411     -1.63364708      0.89955411
