13
b3lypvtz=-190436.64896886
C      -1.81734707      1.69455249      0.03690251
C      -1.05612999      0.78179129      0.18991394
C      -0.12978253     -0.33220559      0.38082354
C       1.08885275     -0.22535715     -0.57218661
C       1.94180371      0.92541583     -0.29968419
N       2.62005621      1.82557828     -0.07056719
N      -0.80461193     -1.60615740      0.09137225
H      -2.48475364      2.50901912     -0.09847344
H       0.24805489     -0.27309845      1.41014315
H       0.72944178     -0.18529921     -1.60047506
H       1.68982940     -1.13163344     -0.47112452
H      -0.29202228     -2.37438941      0.50933399
H      -1.73339130     -1.60821633      0.49402162
