17
b3lypvtz=-217691.20237358
C       2.75242899      0.46137106     -0.43835111
O       1.47498722      0.41982273      0.16220120
C       0.93199396     -0.88807498      0.22423568
C      -0.46461490     -0.78899487      0.81918037
C      -1.40387127     -0.03166746     -0.11894919
C      -1.96998132      1.27508146      0.37650241
O      -1.65993662     -0.47542762     -1.21498065
H       3.07774070      1.50026327     -0.43968099
H       3.47997063     -0.13829165      0.12321985
H       2.72316588      0.09501849     -1.47160841
H       0.87349752     -1.32745090     -0.77866627
H       1.56737809     -1.53324639      0.84533680
H      -0.86581029     -1.79736957      0.94206800
H      -0.41128748     -0.31567799      1.80013615
H      -2.51995106      1.12074870      1.30868889
H      -1.14577784      1.95603571      0.60331703
H      -2.62452423      1.71383702     -0.37275276
