19
b3lypvtz=-195133.63470265
C      -0.41109148      1.42041130      0.80354755
C      -0.50485840     -0.01200591      0.31305810
C       0.81376441     -0.74268815      0.10342763
C       1.66711262     -0.27026332     -1.07438492
O       2.21376327      1.03941253     -0.92695997
C      -1.63879667     -0.36125279     -0.61725880
C      -1.66627426     -0.83184814      0.81678368
H      -1.40573818      1.84615259      0.94680678
H       0.10831695      1.46699923      1.76521292
H       0.13484697      2.04679100      0.09936411
H       1.41223148     -0.68988951      1.02196420
H       0.60760521     -1.80565834     -0.05732325
H       1.06065478     -0.22843213     -1.98031049
H       2.46936901     -0.99720001     -1.25148677
H       2.80158126      1.03952418     -0.16521911
H      -2.32072810      0.42613974     -0.90882910
H      -1.46554095     -1.10114070     -1.38785300
H      -1.51001014     -1.88571038      1.00650039
H      -2.36620778     -0.35934118      1.49306006
