14
b3lypvtz=-201296.15198917
C       1.44448442     -0.14458264     -0.33118872
C       1.84764462      1.14611587      0.21939817
N       2.14814463      2.16314963      0.66550482
C       0.21568887     -0.72003964      0.36500390
N       0.32447204     -1.86192077      0.89995019
C      -1.03977890      0.13202086      0.33519559
N      -1.36516486      0.53377736     -1.03299330
H       1.21624748     -0.00009528     -1.38932337
H       2.26121950     -0.85809998     -0.23389658
H      -0.56344439     -2.15857884      1.30973100
H      -0.84214874      1.03904907      0.91188669
H      -1.83864144     -0.41334676      0.85319483
H      -1.84610053     -0.20648091     -1.52798397
H      -1.96262271      1.34903202     -1.04447926
