15
b3lypvtz=-216924.98075077
C      -1.42257613      1.10239131      0.69537571
C      -0.57601583     -0.14998615      0.40886282
C      -1.39088661     -1.13628297     -0.41015138
O      -1.71845902     -2.23381186     -0.04040676
C       0.68732553      0.17874751     -0.34087177
C       1.88777843     -0.24828721      0.03643745
O       3.02015946      0.05566068     -0.66323527
H      -0.84277952      1.82268197      1.27257771
H      -1.72908552      1.58924871     -0.23313442
H      -2.32167990      0.84942110      1.25903082
H      -0.33305868     -0.65391062      1.34619214
H      -1.67597584     -0.77036952     -1.42108660
H       0.60696628      0.78379433     -1.23807546
H       2.02453463     -0.85740880      0.92453073
H       3.78365271     -0.33168847     -0.22804572
