11
b3lypvtz=-215402.2358272221
C      -0.86592286     -0.57578809      1.37478116
C      -0.26114030     -0.12108672      0.26913816
C       1.18275624      0.05856660      0.15012256
C       1.82871133      0.49993224     -0.91198808
O       2.44350939      0.88215402     -1.81767046
C      -1.09040788      0.22856356     -0.92301057
O      -2.28929005      0.13621620     -0.98208744
H      -0.31468364     -0.84312531      2.26546870
H      -1.94070905     -0.68225219      1.38592138
H       1.82439081     -0.18103674      0.98940122
H      -0.51721399      0.59785645     -1.80007664
