20
b3lypvtz=-182667.14093246
C       3.69714719     -0.48141635     -0.19527879
C       2.33739153      0.05504696     -0.52178718
C       1.37722062      0.30729879      0.36167142
C       0.01512299      0.84091022      0.03128259
C      -1.11453599     -0.11443475      0.42676854
N      -2.41919582      0.45562428      0.11768945
C      -3.53327084     -0.40472092      0.48831015
H       4.48235066      0.20974267     -0.51499068
H       3.88442209     -1.42609533     -0.71374413
H       3.81343602     -0.65373452      0.87534396
H       2.14063148      0.25165599     -1.57332745
H       1.57267175      0.11059965      1.41422322
H      -0.13908523      1.79114486      0.55855083
H      -0.06147012      1.05799907     -1.03572604
H      -1.01170130     -0.38447366      1.49276207
H      -1.01046888     -1.04638714     -0.13614142
H      -2.51302999      1.35299171      0.57897179
H      -3.51217441     -1.31176212     -0.11964929
H      -3.53007041     -0.71551436      1.54562948
H      -4.47539131      0.10552495      0.28585056
