19
b3lypvtz=-171822.03596642
C      -2.17229071     -1.70053237     -0.17665983
C      -1.60316782     -0.69001145      0.13382252
C      -0.91101832      0.54517871      0.50692011
C      -1.18863788      1.66577428     -0.51218494
C       0.59910635      0.30700563      0.75201256
C       1.40397082     -0.16289541     -0.46050272
C       2.86545703     -0.44894476     -0.11410495
H      -2.67846896     -2.59313156     -0.44730287
H      -1.33303407      0.86637685      1.46523926
H      -0.84363646      1.39198063     -1.50833702
H      -2.25685914      1.87163027     -0.57483230
H      -0.67909414      2.58259770     -0.21027715
H       0.70147493     -0.42888478      1.55401820
H       1.02394078      1.24161185      1.13172830
H       1.36475890      0.59230115     -1.24932871
H       0.94185602     -1.06342433     -0.87192739
H       3.36219196      0.44121812      0.27903493
H       2.94586678     -1.23220916      0.64281020
H       3.42355892     -0.77830537     -0.99192520
