13
b3lypvtz=-218759.10063806
N       3.17811788     -0.83494994      0.01610051
C       2.68463831      0.33899004      0.00256948
C       1.27773574      0.76516054     -0.00246809
C       0.21169020     -0.05169647      0.00642427
C      -1.15834597      0.39514541      0.00115374
C      -2.18391316     -0.45424561      0.01017652
F      -3.45362875     -0.02666789      0.00514688
H       2.44798766     -1.55079535      0.02427877
H       3.40317024      1.16058761     -0.00679095
H       1.11381590      1.83766834     -0.01451412
H       0.36742604     -1.12722897      0.01843867
H      -1.36491668      1.45902950     -0.01056806
H      -2.11078939     -1.53404121      0.02201739
