19
b3lypvtz=-171820.57481689
C       2.54891819     -0.25691940     -0.27318902
C       1.42023471      0.10178373      0.69917877
C       0.05908967      0.07631149      0.06142951
C      -0.69945006     -1.20124299     -0.33433500
C      -2.03566675     -0.53698814      0.12591537
C      -1.25665465      0.72411500      0.50028640
C      -0.51052277      1.24067877     -0.69790426
H       3.51956116     -0.24199360      0.22545286
H       2.58679884      0.44780648     -1.10589912
H       2.40700118     -1.25558469     -0.69104375
H       1.60047444      1.09661421      1.11736967
H       1.43629446     -0.59325261      1.54545103
H      -0.43326704     -2.05605430      0.28751869
H      -0.62909029     -1.49846620     -1.38280338
H      -2.47187925     -1.04507887      0.98458341
H      -2.81001364     -0.41091226     -0.63396831
H      -1.44812140      1.35330433      1.35942211
H       0.00508960      2.18174589     -0.55196485
H      -0.92266440      1.11012817     -1.69403315
