17
b3lypvtz=-194360.78947889
C      -2.59326722     -0.67921796      0.22931092
C      -1.35567063     -0.83551753     -0.22361983
C      -0.30623235      0.23628825     -0.38677249
C      -0.77389781      1.65351984     -0.05428330
C       0.91398371     -0.12627022      0.44056447
C       2.01476951     -0.93394221     -0.08781584
O       2.15259488      0.48373401      0.06315952
H      -2.98440805      0.28379071      0.53013445
H      -3.26825695     -1.52111866      0.30940120
H      -1.03112540     -1.83284856     -0.50878910
H       0.02064300      0.21971573     -1.43349599
H       0.03999293      2.35983882     -0.21614142
H      -1.08788718      1.73447205      0.98844034
H      -1.61361951      1.95084859     -0.68319349
H       0.74522759     -0.14384862      1.51576057
H       1.97324834     -1.28497628     -1.11473313
H       2.62145414     -1.53303496      0.58363413
