17
b3lypvtz=-191973.05910348
C       3.22009904      0.13133479      0.60076032
C       2.18400808      0.35992118     -0.49845879
N       1.03350875     -0.50238237     -0.30419662
C      -0.11429726      0.02542678     -0.18877678
C      -1.28500135     -0.84973963      0.01594006
N      -2.51016487     -0.54632749      0.15218516
C      -2.98511771      0.82213389      0.12415323
H       2.82212465      0.41838027      1.57505577
H       3.50223704     -0.92031783      0.64637001
H       4.11510725      0.72461468      0.40839694
H       1.90172317      1.42156217     -0.54506370
H       2.62522406      0.09316031     -1.46329057
H      -0.25420493      1.10973917     -0.23866275
H      -1.02306130     -1.90728801      0.05049106
H      -3.50289071      1.02165824      1.06494348
H      -3.73679666      0.90502540     -0.66380299
H      -2.23279625      1.60042643     -0.03025885
