13
b3lypvtz=-260395.33663438982
C       1.99297981     -0.35147190      0.07708215
O       1.84914941     -1.48099466      0.47638228
O       1.04800493      0.56676034     -0.11235710
C      -0.37831630      0.17658005      0.04647913
N      -1.03875953      1.44399185      0.08398628
N      -0.73664616     -0.61950888     -1.08740427
O      -0.55184773     -0.53826231      1.22177473
H       2.97070229      0.07847910     -0.17664583
H      -2.03742056      1.29378172      0.15860993
H      -0.73487886      1.97212660      0.89452729
H      -0.92532972     -0.04420405     -1.89704491
H      -1.52769905     -1.20980548     -0.87368664
H       0.07006149     -1.28747236      1.18829698
