15
b3lypvtz=-216938.11215835
C       3.22258307      0.14617143      0.59434675
C       2.18809647      0.31744954     -0.52602460
C       0.94714228     -0.49188148     -0.30115417
C      -0.26148579      0.03366753     -0.17804210
O      -1.35737434     -0.79649382      0.03683290
C      -2.57752108     -0.22854132      0.15969480
O      -2.82625722      0.94080582      0.10255645
H       2.82150118      0.48357156      1.55104035
H       3.51267148     -0.90044799      0.70557019
H       4.12483340      0.72143954      0.38151851
H       1.92597192      1.37264872     -0.63040388
H       2.64363480      0.01642572     -1.47523771
H       1.05494525     -1.56922276     -0.22416406
H      -0.49612459      1.08646234     -0.23225287
H      -3.31266582     -1.02502385      0.32259446
