13
b3lypvtz=-192827.36172738
C       2.15500477     -0.45801038      1.82362983
C       1.37734783     -0.06551129      0.99634905
C       0.44164267      0.40125981      0.02301850
C       0.53560124      1.63157803     -0.49873634
C      -0.63621740     -0.53832181     -0.38640905
C      -1.90903723     -0.17724638     -0.56055963
O      -0.16743822     -1.81011482     -0.54532448
H       2.84430297     -0.80680750      2.55130010
H       1.30281936      2.31784114     -0.17062506
H      -0.14986282      1.96202590     -1.26554386
H      -2.65815300     -0.88850629     -0.88481098
H      -2.22788942      0.83290658     -0.36267161
H      -0.90802075     -2.40119299     -0.71961649
