12
b3lypvtz=-223786.56236629
C       3.46761634      0.23935471     -0.00013236
N       2.39187101     -0.43913583     -0.00009008
C       1.18663426      0.24824158     -0.00005845
C       0.02340667     -0.41860170     -0.00002377
N      -1.16949570      0.30114591      0.00001455
N      -2.16608513     -0.42573907      0.00003895
O      -3.30820501      0.36410616      0.00000631
H       4.42135293     -0.27924746     -0.00001783
H       3.48631525      1.33477077      0.00002660
H       1.18273367      1.33863280     -0.00007043
H      -0.00763013     -1.50292967     -0.00003664
H      -4.01528917     -0.29319219      0.00003015
