14
b3lypvtz=-203663.46235916
C       2.81057214     -0.23011275      0.15910769
C       1.59386882     -0.63952336     -0.18663803
C       0.36453673      0.18615728     -0.08738906
N       0.29990305      1.45335050     -0.17339746
C      -0.90546255     -0.59387190      0.10773980
C      -2.14630206     -0.19614546     -0.58104228
O      -1.97168682      0.04035035      0.80812603
H       3.67122325     -0.87805337      0.06639659
H       2.98662754      0.75990011      0.56298048
H       1.45831813     -1.65807202     -0.53731180
H       1.22082849      1.85719377     -0.34286323
H      -0.77425677     -1.64287105      0.35717366
H      -2.87942340     -0.95368985     -0.84089379
H      -2.11396355      0.69196975     -1.20249462
