12
b3lypvtz=-202961.60135849
O      -2.78039270     -0.71310244     -0.11156002
C      -2.03728017      0.23946799      0.04786769
C      -0.59766021      0.14699783      0.02693256
C       0.39166429      1.10855290      0.18754037
C       1.63534436      0.45944412      0.07275078
C       1.37677408     -0.88198101     -0.15492731
N       0.03324923     -1.05660783     -0.18021141
H      -0.47057562     -1.91598355     -0.32492880
H      -2.43642059      1.25589150      0.22188668
H       0.21978648      2.15688695      0.36681692
H       2.61160842      0.90704826      0.14574914
H       2.05380243     -1.70671472     -0.29771660
