17
b3lypvtz=-191960.49012637
C       2.74489025     -0.53868321      0.29930905
C       1.87169361      0.45471145      0.09644442
N       0.59167417      0.33221411     -0.38912786
C      -0.19962701     -0.89972444     -0.40433348
C      -1.48748491     -0.01645727     -0.36521772
N      -2.57437711     -0.27794165      0.54778417
C      -0.55590006      1.16337237      0.00520603
H       3.74776428     -0.31981177      0.63168215
H       2.49424963     -1.57409592      0.11236523
H       2.16111102      1.48361477      0.28712823
H      -0.07526162     -1.49980408      0.50845555
H      -0.04063411     -1.53989570     -1.27495857
H      -1.90228837      0.10966320     -1.36451762
H      -3.15477609     -1.04280541      0.22679656
H      -2.23267369     -0.51920578      1.47082289
H      -0.58884081      1.38394253      1.07982272
H      -0.67134815      2.09343778     -0.55398877
