13
b3lypvtz=-213723.65528878
C      -1.56490930     -0.38300800      0.67726710
C      -0.84888753      0.72373998      0.04012464
N      -0.26180115      0.02087091      1.27450311
C       0.76509418     -0.52172622      0.40400527
N       1.77544397     -1.16599500      0.77116489
C       0.26217796      0.18353758     -0.87015437
O       1.15659539      1.10697451     -1.44155409
H      -1.62872179     -1.34453337      0.17932535
H      -2.39894042     -0.15350289      1.32624818
H      -1.15949870      1.75777671      0.08834892
H       2.38243195     -1.36781985     -0.02335632
H      -0.07902426     -0.45254735     -1.68712711
H       1.60003972      1.59623299     -0.73879560
