14
b3lypvtz=-250317.78942827
C      -0.70003039     -0.30625376     -0.74558965
C       0.25154865     -0.71375921      0.37814870
O      -0.42749945     -1.20285438      1.46458776
O       0.98845234      0.49139826      0.82022245
C       2.14713316      0.75961499      0.21324840
O       2.62925113      0.15716781     -0.70890660
N      -1.80369966      0.46270405     -0.16296771
H      -0.14242957      0.21273707     -1.52957575
H      -1.10765106     -1.22191863     -1.17558659
H       0.99243476     -1.43637363      0.04818575
H      -1.26736560     -0.70940355      1.48648288
H       2.61034060      1.63503512      0.68927431
H      -2.62510010      0.44028513     -0.75060253
H      -1.54538481      1.43162072     -0.02692139
