13
b3lypvtz=-192780.45733948
C       2.90072100     -0.18157475     -0.19490893
C       1.70357978     -0.10234659     -0.19736038
C       0.27482401     -0.00988388     -0.16718075
C      -0.62970342      1.11701918      0.40575451
C      -1.50833941      0.11642085     -0.37132600
C      -0.77203840     -1.05805903      0.30357910
O      -0.48685919      0.10030057     -1.45223666
H       3.96012355     -0.25138309     -0.19937042
H      -0.73888571      1.16889244      1.48835952
H      -0.49755187      2.08768985     -0.06451826
H      -2.54809230      0.19858541     -0.67189063
H      -0.89355158     -1.19627610      1.37724603
H      -0.76422648     -1.98938487     -0.25614714
