11
b3lypvtz=-236317.58340632
C      -1.40700308     -0.23945069     -0.23927013
N      -2.22510874      0.70211380     -0.02415797
C       0.03225296      0.03330872      0.03337298
N       0.88384724     -0.89710532     -0.17337250
C       2.24760263     -0.65413944      0.07895550
O       3.08394931     -1.49979455     -0.09950019
O       0.28447525      1.26611750      0.48077481
H      -1.63948779     -1.23787556     -0.60544206
H      -3.19066170      0.45560994     -0.22852871
H       2.51176063      0.35034729      0.44845064
H      -0.58162670      1.72086832      0.52555841
