17
b3lypvtz=-191978.64480376
N      -2.89389531      0.02698353     -0.02058408
C      -1.70904804     -0.07491509      0.41380102
C      -0.42283911      0.01786409     -0.35629407
C       0.49872955     -1.22882328     -0.17057428
C       1.87241598     -0.65857891      0.23091493
N       1.81193883      0.72618339     -0.24149842
C       0.46993326      1.19062333      0.10031827
H      -2.89479368      0.19212694     -1.03048794
H      -1.59149198     -0.25456755      1.48788310
H      -0.65622682      0.14430788     -1.41467281
H       0.11252219     -1.90810734      0.58998065
H       0.55690957     -1.78725155     -1.10323707
H       2.70282381     -1.19071051     -0.23430389
H       1.99900604     -0.72814524      1.32205175
H       2.53625981      1.30555416      0.16411271
H       0.22841535      2.12012871     -0.41575107
H       0.33369755      1.35881043      1.18162920
