17
b3lypvtz=-217683.86704511
C       2.48899741     -0.03667447     -0.52476155
C       1.45227948     -1.04475615     -0.02979193
C       0.36830567     -0.45728163      0.89547587
C      -0.53830298      0.54430680      0.25120158
O      -0.01980927      1.82154555      0.25433556
C      -1.72380965      0.26232696     -0.29144219
O      -2.18122229     -1.04180751     -0.38839437
H       3.23800981     -0.52704487     -1.14927418
H       3.00967753      0.43612571      0.31152325
H       2.02891672      0.75802332     -1.11210719
H       0.96128849     -1.52236891     -0.88118498
H       1.95962194     -1.84272813      0.52008959
H       0.84379446      0.02553226      1.75423382
H      -0.24810391     -1.27344673      1.27180068
H      -0.62469891      2.41632842     -0.20341640
H      -2.34244397      1.03026268     -0.74955521
H      -3.10457753     -1.07357630     -0.11980136
