17
b3lypvtz=-217667.13099721
C       1.34386787      1.49609514      0.41168923
C       0.45753603      0.64408764     -0.50450112
C       1.00888665     -0.76577867     -0.70171184
O       1.25966764     -1.37765276      0.56801899
C      -0.98891095      0.69784466     -0.04445157
C      -1.65238480     -0.31077804      0.78491516
O      -1.91614546     -0.22350686     -0.62599573
H       0.95649275      2.51317246      0.49386892
H       2.36007318      1.55769005      0.01880004
H       1.39731293      1.06613053      1.41076111
H       0.46713254      1.09724680     -1.50348473
H       0.29198499     -1.35495891     -1.28075148
H       1.94061038     -0.69496535     -1.27459017
H       1.61264547     -2.25838275      0.41639074
H      -1.37812364      1.71291573      0.01705972
H      -2.48105647     -0.01577576      1.42125389
H      -1.09662510     -1.18495992      1.09781983
