14
b3lypvtz=-203651.24890382
C      -3.60338586     -0.46187484     -0.25230632
C      -2.51613906      0.04204659     -0.28854591
C      -1.18927799      0.64986445     -0.30216917
N      -0.15956060     -0.31083032     -0.70679354
C       1.14306389      0.19842636     -0.80737534
C       2.23687382     -0.38393671     -0.32049449
O       3.49437662      0.06345939     -0.67493446
H      -4.56812261     -0.90370648     -0.23073895
H      -1.17680616      1.47601356     -1.01891530
H      -0.99120870      1.09295634      0.68518918
H      -0.21187105     -1.16170735     -0.16246775
H       1.24150459      1.09936752     -1.40297810
H       2.19427506     -1.28223769      0.28886625
H       4.10607807     -0.11774082      0.04366391
