16
b3lypvtz=-204455.89325175
C       2.10639952      0.85389477     -0.39131597
C       1.18127856     -0.03042997     -0.02319451
C       1.50413994     -1.46666727      0.28499956
C      -0.25102570      0.38871387      0.07970352
N      -0.71669060      1.51845954      0.42284720
O      -1.07683470     -0.63247778     -0.23991605
C      -2.48112346     -0.36629053     -0.16516776
H       3.14976652      0.57633942     -0.46100098
H       1.85208638      1.87309916     -0.65045169
H       1.15805880     -1.74157236      1.28395807
H       1.00071674     -2.13474558     -0.41476596
H       2.57756239     -1.64174404      0.22827252
H       0.03303774      2.15756227      0.66539149
H      -2.75877687      0.43295162     -0.85155872
H      -2.76215688     -0.06824638      0.84450433
H      -2.96924139     -1.29691075     -0.44235606
