13
b3lypvtz=-190494.94362007
C       0.12755146      1.18263730     -0.09805331
C      -1.25321097      1.29089952     -0.11182820
N      -2.09363175      0.25932120      0.00126710
C      -1.52984207     -0.94365933      0.13614377
C      -0.16385204     -1.17093654      0.16307738
C       0.70957413     -0.08312784      0.04262967
N       2.07816662     -0.24458622      0.11352981
H       0.74499470      2.06736322     -0.19199597
H      -1.71014149      2.26895114     -0.22196853
H      -2.21160117     -1.78289464      0.22772672
H       0.21921818     -2.17723159      0.27878131
H       2.43861351     -1.16438102     -0.07720451
H       2.64416088      0.49764481     -0.26210524
