14
b3lypvtz=-203632.57301706
C      -1.48514390      0.60544325     -0.14427193
C      -0.73566800     -0.38839962      0.75520073
C       0.27579325     -1.35879063      0.08845229
C       1.37884341     -0.33222089      0.18287898
C       0.37208973      0.67332766      0.79929360
O      -0.34067966      1.51084740     -0.15185542
N       0.91151513     -0.81832296     -1.09844344
H      -2.34893351      1.07698261      0.32933282
H      -1.75835901      0.27751466     -1.15079951
H      -1.22021923     -0.75894871      1.65301051
H       0.30726856     -2.42900363      0.23823505
H       2.42647144     -0.43156164      0.43236886
H       0.68131105      1.20552014      1.69679282
H       0.36211072     -0.12018765     -1.59119536
