15
b3lypvtz=-191205.66202992
C       2.00171463     -0.30982610     -0.12590487
C       0.53663907     -0.26286535     -0.55059816
C      -0.42840152     -0.53991631      0.60309654
C      -1.88153647     -0.46893944      0.35250517
N      -1.15917320      0.72877135      0.86386039
C      -0.71732244      1.54211457     -0.22458143
N       0.17108920      1.09734361     -1.01116712
H       2.28249040     -1.32092613      0.17520883
H       2.18232884      0.36344539      0.71370882
H       2.64318704     -0.00334902     -0.95136642
H       0.38814610     -0.95129831     -1.38679371
H      -0.06566428     -1.06138467      1.47966488
H      -2.57252113     -0.90877949      1.05937417
H      -2.22629988     -0.43358371     -0.67440425
H      -1.15467636      2.52919360     -0.32260284
