11
b3lypvtz=-236271.51595291
O      -3.39793127      0.55776319     -0.27639887
C      -2.48227079      0.26570791      0.45465192
C      -1.08017141      0.16265544     -0.01659072
N      -0.18606838     -0.15233087      0.83793965
C       1.15968561     -0.27303587      0.48408607
N       1.57959163     -0.08121366     -0.70505262
O       2.94935877     -0.26166432     -0.79730271
H      -2.61873355      0.05273105      1.53065369
H      -0.89368459      0.36329755     -1.07260729
H       1.83732077     -0.54301457      1.28832939
H       3.13300321     -0.09089585     -1.72770850
