14
b3lypvtz=-226993.0144112634
C      -0.95655683      0.15922970     -0.45771102
C       0.17332262     -0.88102740     -0.46050079
C       1.55526343     -0.27657967     -0.21465808
C       1.81430191      1.00264849     -0.17012792
O       2.01821734      2.15029306     -0.13003839
O      -0.10532143     -1.88707644      0.49171333
N      -1.22826120      0.58542472      0.91981137
H      -0.72042392      0.98157882     -1.14369979
H      -1.85164916     -0.33507297     -0.83459116
H       0.19057057     -1.38129239     -1.43148455
H       2.38218657     -0.95524216     -0.05691055
H      -0.48064603     -1.41248917      1.25144593
H      -0.61346125      1.33283466      1.21551866
H      -2.17754262      0.91677073      1.02123295
