12
b3lypvtz=-226226.49884419
C      -2.23766485      0.16903140      0.10232414
C      -0.93265651     -0.04380573     -0.12254791
O      -0.45418982     -1.08697184     -0.87420480
N      -0.01642288      0.82686291      0.42716150
C       1.25676662      0.78332431      0.31929287
C       2.17769598     -0.16049893     -0.39441465
O       3.37180659      0.03011371     -0.33543117
H      -2.53523549      1.01086209      0.70403445
H      -3.00207117     -0.47967991     -0.30265214
H      -1.19268498     -1.61605437     -1.19622881
H       1.81480840      1.56730658      0.83124785
H       1.74984809     -1.00059023     -0.95278133
