18
b3lypvtz=-205204.55153072
C       1.90213843     -1.50991818      0.00853455
C       1.63236111     -0.06090369     -0.26257040
C       0.55184306      0.63298442      0.11503154
N       0.30678671      1.95364597     -0.30859005
C      -0.56667390      0.03912248      0.94977897
O      -1.41611457     -0.86487688      0.25838558
C      -2.17719068     -0.27214738     -0.77818854
H       1.98200062     -2.07576602     -0.92496761
H       1.11394672     -1.97806535      0.59501137
H       2.85076503     -1.64611264      0.53681620
H       2.37958147      0.45562898     -0.86081135
H       1.10963284      2.41095005     -0.71690917
H      -0.11762021      2.54148111      0.39444129
H      -1.16860850      0.85282461      1.37989820
H      -0.15220906     -0.53561091      1.77619295
H      -1.54431877      0.12170728     -1.57813901
H      -2.82146614     -1.05233771     -1.17995309
H      -2.80185816      0.54515487     -0.39560643
