13
b3lypvtz=-218749.00738036
C       2.73149068     -0.65648466      0.18870470
N       1.63936967     -0.62819645     -0.44645079
C       0.62317970      0.26723825     -0.04527663
C       0.83820651      1.58569701      0.06136378
C      -0.67837314     -0.38658901      0.15962280
C      -1.83849328      0.17267464     -0.14887264
F      -3.00615922     -0.45098011      0.08574347
H       2.91926333     -0.04489885      1.07714128
H       3.52651399     -1.31481662     -0.15254882
H       0.04791132      2.26012676      0.35569610
H       1.79855324      2.01431465     -0.18658507
H      -0.67682147     -1.39623906      0.55228263
H      -1.97487734      1.14036244     -0.61170380
