17
b3lypvtz=-215272.58099317
N      -2.32850293     -0.50659932     -0.34078539
C      -1.07794072     -0.24155283      0.34402234
C      -0.02547160     -1.37511954      0.36759006
C       1.07316998     -0.30134153      0.31991160
O       2.20239602     -0.63096015     -0.46261612
C       0.03646909      0.69341975     -0.23917263
N       0.19208782      2.09475357      0.10153396
H      -2.93787153      0.30315380     -0.31947491
H      -2.16285037     -0.73260924     -1.31515489
H      -1.31515344      0.07337370      1.36430296
H      -0.03479256     -2.07284785      1.20174327
H      -0.03484069     -1.93492101     -0.56922281
H       1.37450803     -0.00312882      1.33249193
H       2.77543054      0.14188677     -0.50341580
H       0.03555817      0.59779573     -1.32869721
H      -0.48470851      2.67367040     -0.38143658
H       0.05644170      2.24343955      1.09536522
