15
b3lypvtz=-193624.85867964
O      -1.68802785     -0.64555112      1.28813201
C      -1.08582639     -0.57468755     -0.01716617
C      -0.98716207      0.86515482     -0.44958331
C       0.15862341      1.54548145     -0.31508010
C       1.37508109      0.90456908      0.17774414
C       1.43608906     -0.42390247      0.32037170
C       0.27352473     -1.28830982     -0.06974544
H      -1.22007613     -0.02742740      1.86051121
H      -1.78572274     -1.11586258     -0.65379370
H      -1.89647079      1.35788750     -0.76955217
H       0.19567864      2.60190646     -0.55287463
H       2.22812986      1.52713928      0.41660629
H       2.34034189     -0.90141079      0.67739714
H       0.21489827     -2.18406117      0.55198510
H       0.44081902     -1.64082569     -1.09695209
