15
b3lypvtz=-240217.98203892
C       1.29820152     -0.97844496     -0.59325085
C       0.37658735      0.04321671      0.02058880
C      -1.10387824     -0.33678282      0.00448433
O      -1.67021135     -0.01178163     -1.24005854
O      -1.76928579      0.31690924      1.06329738
C       0.87442476      1.05510841      0.95375799
O       0.58698539      1.40051709     -0.41350670
H       1.32693656     -1.88614808      0.01319103
H       2.30812884     -0.57889737     -0.67082905
H       0.95378312     -1.24841309     -1.59289235
H      -1.21233885     -1.42174842      0.09680155
H      -1.38627888      0.89200911     -1.44016204
H      -2.71419583      0.21316437      0.90650222
H       0.20114154      1.48404731      1.68340736
H       1.92979985      1.05714412      1.20866887
