10
b3lypvtz=-199736.17024556
N      -2.55628601     -0.52478351      0.16465240
N      -1.36876413      0.03686147      0.38382964
C      -0.35142826     -0.38799116     -0.28293243
C       0.91209634      0.21382149     -0.12231262
C       2.02346088      0.68291804     -0.02830789
C       3.27000633      1.22094502      0.08657987
N       4.33075718      1.67527692      0.18194314
H      -3.23022062     -0.34498755      0.88854723
H      -2.60317564     -1.43546665     -0.28046931
H      -0.42644606     -1.21689407     -0.99143003
