14
b3lypvtz=-201280.65736837
C      -3.07105792     -0.29768754     -0.00004307
N      -1.76534248      0.32190118      0.00013287
C      -0.73506709     -0.40727323      0.00021299
C       0.63118861      0.20020613      0.00015181
N       0.85353510      1.45069141      0.00010523
C       1.79365849     -0.74829300      0.00001045
N       3.01176631     -0.40978321     -0.00025472
H      -3.62489691      0.04618214     -0.87594136
H      -3.03947552     -1.39399573      0.00000941
H      -3.62527086      0.04624718      0.87558794
H      -0.79199127     -1.50356135      0.00021875
H      -0.03458989      1.95829843      0.00016431
H       1.55095359     -1.81270960      0.00000152
H       3.07355682      0.61437919     -0.00027314
