14
b3lypvtz=-250277.07245321
C      -1.57893510      0.61767319     -0.59377017
C      -0.61568512      0.29000977      0.55015736
O      -1.12485516     -0.78958774      1.30104864
C       0.78393191      0.00376222      0.04672126
O       1.45532722      0.97872457     -0.60285608
N       1.27195719     -1.14747031      0.26424781
O       2.57389999     -1.30250683     -0.23661945
H      -1.26472952      1.49509980     -1.16441214
H      -1.65574047     -0.23222113     -1.27159646
H      -2.56462535      0.82239707     -0.17803672
H      -0.53924655      1.17036872      1.20728344
H      -0.44122506     -1.47580320      1.30262500
H       0.91799170      1.77745617     -0.63809946
H       2.78193431     -2.20800231      0.01330697
