13
b3lypvtz=-262786.35707335
O      -2.94451711     -1.13923577      0.59582752
C      -2.06044166     -0.36705336      0.35511317
O      -2.28071579      0.87447219     -0.10416188
C      -0.59216748     -0.73944450      0.52959622
O       0.21839352      0.40724714      0.34264085
C       1.61170978      0.12583929      0.22947059
O       2.30528291      1.31224718      0.07311349
H      -1.41861259      1.30941500     -0.21601102
H      -0.46557755     -1.17142591      1.52684352
H      -0.36125869     -1.51782881     -0.20722859
H       1.92856142     -0.43390182      1.12030868
H       1.79730439     -0.47314791     -0.66666311
H       2.26193884      1.81291727      0.89495057
