16
b3lypvtz=-181106.15088152
C       2.41384729     -0.90136773      0.00034290
C       1.35058368     -0.34411970      0.00028102
C       0.07108305      0.35085163      0.00001539
C       0.27198654      1.86666795     -0.00014750
C      -0.93285666     -0.21676006     -1.05957706
N      -1.59121664     -1.01004739     -0.00005780
C      -0.93317797     -0.21648080      1.05945046
H       3.34996519     -1.40092060      0.00057205
H       0.83166056      2.18213705     -0.88184023
H      -0.69020420      2.38037122     -0.00034828
H       0.83140715      2.18236009      0.88162665
H      -1.54857771      0.58196960     -1.48761706
H      -0.50309902     -0.81023128     -1.86671455
H      -2.60209782     -0.98018503     -0.00021411
H      -1.54903089      0.58236392      1.48708706
H      -0.50367455     -0.80973485      1.86688407
