13
b3lypvtz=-239460.71863468
C       2.30100701     -0.57358122     -0.25320777
C       1.03683603     -0.08264751      0.39368350
O       0.69423581      1.22324141     -0.04792004
C      -0.70892885      1.22589622     -0.03540217
C      -1.14091747     -0.02992536     -0.02075495
O      -2.37171699     -0.54519247     -0.14458921
O      -0.09128430     -0.92043739      0.04301142
H       2.53451918     -1.57927009      0.09553667
H       2.18594671     -0.58434040     -1.33599179
H       3.12515720      0.08829941      0.01241047
H       1.10164007     -0.07921942      1.49326551
H      -1.22295746      2.16350738     -0.11504418
H      -2.40373896     -1.38901756      0.32273454
