18
b3lypvtz=-181901.1599909
C      -2.53946469      0.45818821      0.02425672
C      -1.26037493     -0.14943909      0.56984501
C      -0.44278479     -1.10029660     -0.36241172
C       0.80029370     -0.31774517      0.01350146
C      -0.00477728      0.77127193      0.69863594
C       2.10254579     -0.56252973     -0.08780962
N       3.12774618      0.21545031      0.46601700
H      -3.30291320     -0.30617364     -0.14033877
H      -2.95466272      1.19804471      0.71303756
H      -2.35891301      0.95770663     -0.93104152
H      -1.45905116     -0.64136135      1.52364304
H      -0.73107226     -0.99188672     -1.41339110
H      -0.46532656     -2.16284002     -0.11267794
H      -0.09841158      1.69153904      0.11058743
H       0.28968746      1.04790746      1.71423742
H       2.44754284     -1.46971767     -0.57208536
H       3.99036079      0.19688272     -0.05540528
H       2.85957542      1.16489897      0.67939973
