15
b3lypvtz=-240198.43569612
C      -1.80851904      0.46514868      0.92052517
O      -0.47004070      0.00496194      1.10112883
C      -0.02182087     -0.83205198      0.08338391
C       0.41751363     -0.22965282     -1.24533000
O       0.28435162      1.14023262     -1.45746175
C       1.44367915     -0.67152650     -0.22666853
O       2.11731256      0.37235987      0.42343247
H      -2.04285851      1.09066377      1.77951189
H      -2.50677365     -0.37745319      0.89259695
H      -1.89832102      1.04665017      0.00214452
H      -0.45387187     -1.82994894      0.08109056
H       0.27121095     -0.82226824     -2.14023262
H       1.02522364      1.56087339     -0.99631072
H       2.06396433     -1.54005432     -0.40527681
H       1.57874978      0.62216556      1.18736612
