19
b3lypvtz=-171836.45656712
C      -2.44059841     -0.85500442      0.10296873
C      -1.19600954     -0.57562393      0.48489136
C      -0.36251073      0.52493802     -0.03519065
C      -0.88477646      1.71792164     -0.33125427
C       1.12707532      0.25925667     -0.19912352
C       1.39974823     -0.91694884     -1.14817656
C       1.82735145      0.05019095      1.15384712
H      -2.99387074     -1.67256786      0.54568619
H      -2.94093347     -0.28410893     -0.66911823
H      -0.73233012     -1.21971501      1.22594788
H      -1.93104983      1.93774171     -0.16549557
H      -0.27300152      2.51537700     -0.73390711
H       1.55517096      1.15809222     -0.65038890
H       2.47345168     -1.05036067     -1.29403538
H       0.94267629     -0.74983286     -2.12437582
H       0.99937292     -1.85124365     -0.74974318
H       1.65045868      0.89238507      1.82392030
H       2.90501111     -0.04880862      1.00986178
H       1.48228920     -0.85698747      1.65358984
