17
b3lypvtz=-194362.6253206
C       2.58521781      1.18394308     -0.06577993
C       2.35994766     -0.18247550      0.57630771
C       1.41365030     -1.09483590     -0.22842763
C       0.04803507     -0.58954504     -0.33457491
C      -1.07153726     -0.15566521     -0.41026567
C      -2.44543217      0.33645899     -0.49215656
O      -3.15682281      0.26365286      0.74243523
H       3.02923232      1.08401587     -1.05903939
H       3.25813951      1.79370930      0.53874593
H       1.64578345      1.72746371     -0.17379299
H       3.31520580     -0.70268652      0.68353507
H       1.95577644     -0.05794967      1.58336665
H       1.81784089     -1.23770392     -1.23606669
H       1.38921390     -2.08709500      0.23130052
H      -2.44965162      1.39148065     -0.77147525
H      -2.97826381     -0.20703320     -1.28230213
H      -3.05087447     -0.62646449      1.09283105
