13
b3lypvtz=-169513.80634131
C       3.83349750     -0.03011131      0.00001516
C       2.64572095      0.16586991     -0.00001677
C       1.25899773      0.44259028     -0.00005172
C       0.30348307     -0.50749009      0.00004606
C      -1.08441613     -0.24249842      0.00001831
C      -2.27644724     -0.05964720      0.00000300
C      -3.71208252      0.16817349      0.00000428
H       4.87883067     -0.21305561      0.00005231
H       0.96949529      1.48749931     -0.00016234
H       0.60272426     -1.55030589      0.00015667
H      -4.17920465     -0.27763383     -0.88105683
H      -4.17879990     -0.27515306      0.88253347
H      -3.94228802      1.23514742     -0.00143358
