12
b3lypvtz=-200540.87795312
C       0.18930570      1.84254145     -0.22202634
C       0.28405740      0.52065222     -0.04136550
C       1.57365214     -0.08981996      0.09551297
N       2.60454491     -0.59312339      0.20356707
C      -0.89000334     -0.41265054     -0.01828346
N      -0.82964995     -1.66067823     -0.26471580
N      -2.10946897      0.19370503      0.21698041
H       1.06872623      2.46898868     -0.25719713
H      -0.77209526      2.31310241     -0.36681535
H       0.11363615     -1.95880261     -0.49718123
H      -2.12664951      0.92976608      0.90454764
H      -2.86334451     -0.47032214      0.31143771
