13
b3lypvtz=-218756.60842144
C      -2.95652282     -0.40155019      0.24532701
C      -1.73994459     -0.67972309     -0.21182526
C      -0.57068612      0.23362184     -0.10785761
N      -0.63553692      1.51106013     -0.09671889
C       0.73914693     -0.44220489     -0.01619195
C       1.88343713      0.22701262      0.02799837
F       3.06190791     -0.40423095      0.11872083
H      -3.17623469      0.52969778      0.75376791
H      -3.77223460     -1.10355893      0.14079120
H      -1.55143742     -1.64605557     -0.66833390
H      -1.59725970      1.82746560     -0.20913505
H       0.76442940     -1.52360017      0.01824169
H       1.97643649      1.30315380     -0.00317136
