13
b3lypvtz=-190437.0523194
C      -3.07310483     -0.15562140     -0.20088998
C      -1.93015088     -0.40116501      0.06302751
C      -0.54366234     -0.72444344      0.36703835
C       0.46116963      0.23105644     -0.32137317
N       0.32093852      1.58901487      0.18717243
C       1.83047858     -0.31141106     -0.17541828
N       2.90596478     -0.69747481     -0.03485406
H      -4.08506543      0.06836555     -0.42909241
H      -0.37690986     -0.68804076      1.44733187
H      -0.32683632     -1.74842997      0.05493340
H       0.23270783      0.24907501     -1.38855284
H       0.61605776      1.64483849      1.15534162
H       0.89224657      2.23594307     -0.34202345
