18
b3lypvtz=-205227.27713144
C       2.44608281     -0.61756532      0.33179372
C       1.12175332     -0.12336561     -0.25696662
C       1.19379705      1.36188396     -0.62070181
C      -0.03723121     -0.41470798      0.72190428
C      -1.41268924     -0.09909341      0.17595850
N      -2.22186849      0.78623494      0.57072806
O      -1.80574317     -0.86830400     -0.88100117
H       2.41398659     -1.68627118      0.55293494
H       3.27073163     -0.44339834     -0.36118895
H       2.67831573     -0.09164887      1.26130761
H       0.93953155     -0.68493864     -1.18056646
H       1.40292216      1.96608363      0.26621494
H       1.99186553      1.54563200     -1.34173441
H       0.25952272      1.71909944     -1.05452980
H      -0.00957832     -1.47275944      1.00565497
H       0.11361476      0.15922415      1.63804936
H      -1.82878744      1.30354280      1.35066729
H      -1.13459398     -1.52997114     -1.07404145
