15
b3lypvtz=-193578.99785256
C      -1.42785052      1.19497960     -0.21205978
C      -0.46841865      0.18102221      0.37861649
C      -0.91724164     -1.28524768      0.51456647
O       0.25846072     -1.75958211     -0.18581546
C       0.63862678     -0.40382844     -0.54395726
C       2.02362538     -0.08133302     -0.25180614
C       3.16215756      0.20987724     -0.00909971
H      -1.86588922      0.83044009     -1.14360564
H      -2.24495062      1.40826554      0.48007229
H      -0.92123273      2.13867281     -0.42376774
H      -0.03424300      0.55466916      1.30460042
H      -1.83387900     -1.52834041     -0.03251256
H      -0.97836687     -1.69443227      1.52410041
H       0.43727038     -0.22080933     -1.60599759
H       4.17193139      0.45564662      0.20666582
