17
b3lypvtz=-191961.27463244
C       1.19290218      1.67373671      0.23903467
N       0.63351595      0.44202449     -0.27641326
C       1.52597905     -0.72131178     -0.45293249
C       0.39053404     -1.64318931      0.03922308
C      -0.26857503     -0.34092877      0.58367444
C      -1.74125176     -0.13717984      0.34825561
N      -2.26166811      0.55177345     -0.57550022
H       0.39629299      2.39692472      0.41837711
H       1.74671511      1.52832288      1.18152296
H       1.87644937      2.10417389     -0.49455857
H       1.89931392     -0.86300758     -1.46819356
H       2.37703275     -0.71038930      0.24150987
H      -0.18225551     -2.08623018     -0.77236357
H       0.64955874     -2.40569259      0.76828581
H      -0.05105546     -0.21685390      1.65625304
H      -2.40500511     -0.65558981      1.04596595
H      -1.51045113      0.95773892     -1.14435685
