15
b3lypvtz=-193606.34300233
C      -2.75539945     -0.64646560     -0.15707141
C      -1.68124458     -0.04361578      0.32854231
O      -0.41878481     -0.39033654     -0.07116035
C       0.57548051      0.55706716     -0.05326308
C       0.35069820      1.87572308     -0.09949391
C       1.91542379     -0.02177504     -0.00883701
C       2.18807007     -1.32332934      0.06110945
H      -3.72980811     -0.40421540      0.23891432
H      -2.68231835     -1.39320413     -0.93491309
H      -1.71873635      0.71543880      1.10184791
H      -0.63910581      2.29686325     -0.18272057
H       1.18744273      2.55659264     -0.07346426
H       2.72083320      0.70181355     -0.04526200
H       3.20990978     -1.67563204      0.08486540
H       1.40229419     -2.06472661      0.09263030
