17
b3lypvtz=-191957.1919303
C      -2.39931183     -0.79423511      0.06916973
N      -1.03825474     -0.71726564      0.54843049
C      -0.15409211      0.23851582      0.08125132
C      -0.37193780      1.01782051     -0.99045199
C       1.09795934      0.31268391      0.89358733
C       2.42241146      0.54117947      0.28450354
N       2.08769328     -0.78736920      0.82822891
H      -2.94056485      0.15404171      0.17955571
H      -2.92980282     -1.56651292      0.62320250
H      -2.41914715     -1.06717361     -0.98857326
H      -0.87994570     -1.02798946      1.49136927
H       0.37827652      1.72400789     -1.30725056
H      -1.28511532      0.97250574     -1.56499236
H       0.94513515      0.66603694      1.91032764
H       3.17901723      1.08233221      0.83865363
H       2.47240172      0.65697738     -0.79011726
H       1.83547761     -1.40545563      0.06240535
