17
b3lypvtz=-194376.68182147
C      -2.29906221      0.90340198      0.04595907
C      -1.33587157     -0.21218962      0.30203934
C       0.00806469     -0.19870762      0.23979318
C       0.75517896     -1.47266815      0.56365802
O       1.50253587     -2.00264999     -0.53431594
C       0.78294903      0.99748800     -0.09918384
C       2.10797650      1.05652695     -0.25157141
H      -2.88305953      1.11860068      0.94586520
H      -1.82280638      1.82729970     -0.27359217
H      -3.01930009      0.61501449     -0.72502710
H      -1.80349394     -1.15171895      0.58429993
H       0.04934307     -2.21918023      0.94197764
H       1.49390381     -1.29015712      1.34634790
H       0.91232347     -2.06145251     -1.29187951
H       0.21943836      1.91419150     -0.22530370
H       2.59457876      1.99529294     -0.48063647
H       2.73730121      0.18090794     -0.17768273
