13
b3lypvtz=-190463.68931218
C      -2.59226481      0.30715710     -0.00003907
C      -1.55969573     -0.52769756      0.00000741
N      -0.20597584     -0.16910202      0.00000935
C       0.37227461      1.06562280      0.00003162
C       1.72956047      0.87118367      0.00003023
C       1.88898564     -0.53285044     -0.00009461
N       0.72482365     -1.15810192      0.00010012
H      -3.59486196     -0.09151619     -0.00002823
H      -2.48606602      1.38248571     -0.00007493
H      -1.67688579     -1.60131642      0.00006129
H      -0.21367838      1.96697648      0.00000978
H       2.49454357      1.62749345      0.00008402
H       2.80234658     -1.10508269     -0.00024499
