19
b3lypvtz=-195127.98376648
C       3.18913701     -0.14802509      0.07919001
O       1.91943440      0.24086897     -0.39428744
C       0.85805465     -0.46563782      0.22748535
C      -0.44846684     -0.03107902     -0.36725103
C      -1.11124430      1.23523180      0.10943791
C      -1.71233254     -0.10224611      0.44872604
C      -3.01069136     -0.54850504     -0.17937144
H       3.38255850     -1.21298239     -0.10543145
H       3.29512831      0.03873677      1.15608846
H       3.93174466      0.44247203     -0.45487962
H       1.00340301     -1.54740758      0.08873063
H       0.86272001     -0.27357808      1.31093474
H      -0.54927090     -0.25458483     -1.42307809
H      -0.61807375      1.79617911      0.89205600
H      -1.61901296      1.84723133     -0.62421082
H      -1.58138999     -0.42069991      1.47746598
H      -3.09175698     -1.63787788     -0.19753906
H      -3.87036217     -0.15934577      0.37106996
H      -3.08970476     -0.19311748     -1.20872613
