16
b3lypvtz=-181136.42497569
N      -3.22691087     -0.09987975     -0.07347376
C      -1.98098058     -0.35994279     -0.00148496
C      -0.87634068      0.59164399      0.01643841
C       0.40676021      0.23908379      0.10600681
C       1.70094356      1.02496787      0.07316757
C       2.44854570     -0.30854554     -0.22665683
C       1.14709383     -1.08749868      0.12861411
H      -3.37947103      0.91082010     -0.11974033
H      -1.70382705     -1.41464059      0.05491690
H      -1.13425496      1.64595142     -0.04841791
H       1.77328100      1.82288823     -0.66636654
H       1.96008650      1.44039735      1.05010611
H       2.71510972     -0.40645713     -1.27745482
H       3.32513434     -0.52276330      0.38103149
H       1.18148971     -1.52915775      1.12726782
H       0.81560859     -1.85439323     -0.57106807
