18
b3lypvtz=-205196.61122664
O       3.33208708      0.36357813      0.19217603
C       1.95477913      0.69476231      0.34723501
C       1.03404548     -0.17030596     -0.50630806
C      -0.42822160      0.22639618     -0.39734403
C      -1.21368212     -0.06159740      0.90838471
C      -2.36217541     -0.53334975     -0.00862349
N      -1.38169779     -0.65979512     -1.11445022
H       3.45324472     -0.55543956      0.44999152
H       1.87524380      1.74167505      0.04818604
H       1.66021347      0.63720130      1.40283566
H       1.13047101     -1.22130436     -0.21456298
H       1.35459576     -0.10128249     -1.54990672
H      -0.54385657      1.28251362     -0.68000895
H      -1.41219627      0.77587990      1.57310577
H      -0.77376120     -0.88023796      1.47751651
H      -2.87235799     -1.46192494      0.25189819
H      -3.11325035      0.24995845     -0.16139848
H      -1.69358114     -0.32662739     -2.01872649
