20
b3lypvtz=-182682.62077541
C      -1.02384546      0.03215142      1.46205143
C      -0.67625134     -0.00964013     -0.03007094
N      -1.93799861     -0.12131211     -0.77070356
C       0.24206715     -1.20422925     -0.35675760
C       1.66072746     -0.76593808      0.05031102
C       1.65460972      0.79160934      0.00458824
C       0.22802070      1.18717349     -0.42127888
H      -0.13056666      0.07906863      2.08551384
H      -1.59511472     -0.85367806      1.74006649
H      -1.63012563      0.91247509      1.69054770
H      -1.76312884     -0.09715063     -1.76980457
H      -2.54276610      0.66586708     -0.56154194
H      -0.08675187     -2.12074870      0.13343648
H       0.19815154     -1.38560299     -1.43472673
H       1.89983891     -1.11580309      1.05523049
H       2.41616207     -1.19020548     -0.61086544
H       1.89589063      1.20294123      0.98544184
H       2.40248408      1.18233133     -0.68554639
H       0.17916665      1.30947531     -1.50705964
H      -0.10772567      2.12642360      0.02315218
