15
b3lypvtz=-214525.86400261
C      -2.60539940      0.54307007      0.06759672
N      -2.11533379     -0.63345105      0.08680069
N      -0.76082442     -0.84110840      0.04048672
C       0.28284238      0.04641778     -0.09845016
O       0.14029864      1.25355816     -0.14228201
C       1.64281323     -0.63296856     -0.23185205
C       2.78463906      0.24690806      0.26814685
H      -2.02718380      1.45517504      0.01699876
H      -3.68789596      0.58769898      0.10676317
H      -0.54080740     -1.82163653      0.06498155
H       1.63749805     -1.59500618      0.28654822
H       1.78011038     -0.85585175     -1.29498857
H       2.69731553      0.43316902      1.33906332
H       2.77255392      1.21076831     -0.23695372
H       3.74580659     -0.23305894      0.08352553
