14
b3lypvtz=-229597.86567508
C      -1.63848780      1.45900638      0.29224745
C      -1.18275703      0.22672517      0.00787339
N      -2.00126237     -0.81364650     -0.43703953
C       0.23930568     -0.11289357      0.06987255
F       0.49531115     -1.42229899      0.42760319
C       1.29562479      0.65315341     -0.21399402
N       2.61370932      0.23140904     -0.18271947
H      -2.67689551      1.72030303      0.14006267
H      -0.97844285      2.22123341      0.67243172
H      -2.96261592     -0.74751326     -0.14378484
H      -1.62175570     -1.73532921     -0.29305693
H       1.11995274      1.66110964     -0.55744609
H       2.78685802     -0.60302168      0.35580430
H       3.29637249      0.95239014     -0.01899740
