15
b3lypvtz=-191190.36430276
C      -0.26671903      0.99206753     -1.65627501
C      -0.44581939      0.21780662     -0.59970673
C      -1.61712566     -0.12797546      0.29504895
N      -0.70542351     -0.94648412      1.15212360
C       0.43729926     -0.71216923      0.20873310
C       1.65180945     -0.15294476      0.92056963
N       2.24195079      0.94592413      0.72463031
H      -1.07595556      1.58576733     -2.06342449
H       0.68603017      1.04808869     -2.16727412
H      -2.40069678     -0.69805824     -0.21312617
H      -2.08323994      0.70092608      0.83238928
H      -0.98149480     -1.91711439      1.22057852
H       0.74656608     -1.60707870     -0.34644815
H       2.03300836     -0.80770524      1.70876316
H       1.78001057      1.47884977     -0.01668187
