14
b3lypvtz=-226954.88223558
C      -0.71728317      1.87876034      0.14156460
C      -0.63302611      0.58157431     -0.14731875
C       0.62772006     -0.15678955     -0.31909239
N       1.68223404      0.17721038      0.30982288
O       2.77093064     -0.61505618     -0.06883989
O      -1.77254909     -0.13688749     -0.42931713
C      -1.98767145     -1.30074923      0.36705693
H       0.17710487      2.47150257      0.25207514
H      -1.68226400      2.35279335      0.24499587
H       0.63767624     -0.99372447     -1.01650735
H       3.48147170     -0.28399401      0.49022721
H      -2.87997936     -1.78202511     -0.02604772
H      -2.15001919     -1.02863389      1.41367576
H      -1.14863416     -1.99939104      0.30849685
