16
b3lypvtz=-181104.31343965
C      -2.33481031     -0.50591074      0.33539807
N      -0.97483160     -0.04326316      0.60242997
C      -0.45554162      0.85387414     -0.42680095
C       0.92015609      1.33909240      0.05633080
C       1.36457297     -0.13042531      0.05027441
C       2.52628483     -0.74451133      0.19929574
C       0.00790453     -0.57637954     -0.38585722
H      -3.03909958      0.21395759      0.75461363
H      -2.48922640     -1.46408589      0.83251181
H      -2.56241861     -0.62944822     -0.73369849
H      -1.11900084      1.33545272     -1.13075540
H       0.91831350      1.85388115      1.01724820
H       1.45696379      1.93210888     -0.68480621
H       3.42329855     -0.20164605      0.46894362
H       2.62105878     -1.81268520      0.04918856
H      -0.26362405     -1.41991145     -1.00441653
