13
b3lypvtz=-192801.72886898
C       2.94146902     -0.59763017     -0.09493233
C       1.78648157     -0.33625029      0.10259028
C       0.40274293     -0.07261406      0.30485643
C      -0.80665176     -0.88156834     -0.19747178
C      -1.62824064      0.45061096     -0.23394870
C      -0.38673436      1.18176635      0.27857090
O      -0.01554818      0.58397849      1.52001035
H       3.96612263     -0.81902796     -0.26168816
H      -1.14175688     -1.65622474      0.48980939
H      -0.64811214     -1.30463592     -1.18723955
H      -1.90870505      0.73855139     -1.24597010
H      -2.49599361      0.51373698      0.42076464
H      -0.06507354      2.19930731      0.10464864
