17
b3lypvtz=-194391.74859377
C       1.85048345     -1.48453167     -0.48817299
C       1.17953199     -0.68446625      0.64153333
C       0.48680542      0.56363434      0.14708805
C       1.38672875      1.74077599     -0.09858555
C      -0.83487767      0.66262857     -0.08443357
C      -1.82988222     -0.39072429      0.10618147
O      -3.01030624     -0.24468357     -0.13667629
H       2.57691022     -0.88221808     -1.03469824
H       2.37620458     -2.34876322     -0.08055072
H       1.10913911     -1.84395418     -1.20245741
H       0.48592173     -1.33338634      1.17285229
H       1.94315646     -0.38815572      1.36628877
H       1.85187244      2.06178280      0.83829814
H       0.84812565      2.58569961     -0.52363619
H       2.20432595      1.47710921     -0.77441956
H      -1.24622285      1.59563536     -0.45452097
H      -1.46504777     -1.36216856      0.48996244
