10
b3lypvtz=-279687.25250203
O      -2.13207040     -1.34807449     -0.00000291
C      -1.85167801     -0.02815722      0.00000007
C      -0.61001970      0.47181459      0.00000199
F      -0.43572826      1.82388375      0.00000473
N       0.49490067     -0.32676304      0.00000098
C       1.66529993      0.12241062      0.00000234
F       2.69430064     -0.73019910      0.00000171
H      -1.29211499     -1.83126829     -0.00000338
H      -2.72102331      0.61097254      0.00000064
H       1.99094944      1.15671165      0.00000582
