16
b3lypvtz=-202060.86123257
C       3.14976305     -0.36366093      0.03022476
C       1.76181232      0.12580718      0.27322024
N       0.77076838     -0.28402817     -0.39930823
C      -0.51371507      0.26905479     -0.13223812
N      -0.83145408      1.50819862     -0.11348640
N      -1.43972962     -0.71463255      0.07352795
C      -2.85460452     -0.40597357      0.13591712
H       3.55240580     -0.82532966      0.93583926
H       3.16808758     -1.08452270     -0.78410827
H       3.80869187      0.47532364     -0.21064802
H       1.63417774      0.86923608      1.07016093
H      -0.01655217      2.09303134     -0.26654590
H      -1.16586990     -1.62843981     -0.24234556
H      -3.03731282      0.33449816      0.91260321
H      -3.40165351     -1.31556528      0.37866370
H      -3.23310905      0.00362586     -0.80569967
