17
b3lypvtz=-171034.24344817
C       2.37093343     -0.00946744      1.16029453
C       1.55880671      0.32516932     -0.05796858
C       0.25631163      0.13939789     -0.17744958
C      -0.87274121      0.33127581     -1.17402208
C      -1.70409933      0.87513797      0.03444361
C      -0.95031676     -0.37847702      0.59066803
C      -1.35405656     -1.09301410     -0.74185486
H       2.87048861      0.87679383      1.56179395
H       3.15593863     -0.73509171      0.92904092
H       1.75012599     -0.43015683      1.95182268
H       2.09222833      0.75283095     -0.90170913
H      -0.82222977      0.73733519     -2.18114365
H      -1.41052692      1.84306286      0.43629612
H      -2.78717457      0.77542299     -0.05210739
H      -0.99525312     -0.78379758      1.59806761
H      -0.73887612     -1.93480221     -1.05416320
H      -2.41955899     -1.29161993     -0.86723026
