11
b3lypvtz=-269597.62489767
C      -2.32023603     -0.65261343      0.23003198
C      -1.23224206      0.09854693      0.24512501
O       0.02092074     -0.38470806      0.15774912
C       1.11673407      0.44663237      0.17901083
C       2.32299243     -0.09044302      0.08940604
F       3.41414759      0.69756643      0.10734050
F      -1.29023231      1.43346258      0.35115329
H      -3.28913772     -0.18923072      0.30449842
H      -2.23304037     -1.72246696      0.14350036
H       0.95075638      1.50779838      0.26813103
H       2.53933730     -1.14454448     -0.00109091
