15
b3lypvtz=-219493.13134489
C       0.38864477     -1.10105888     -0.17237714
C       1.20271499      0.03969922     -0.76656062
C       1.65198779      0.98255510      0.27021252
N       0.26529249      1.10348664     -0.20776790
C      -0.49929007     -0.00694722      0.47063835
C      -1.93552874      0.02545840      0.00884087
F      -2.61479499     -1.08149362      0.52139410
H       0.91884707     -1.78531670      0.49019319
H      -0.15409603     -1.68294266     -0.91511053
H       1.56745395      0.09050663     -1.78426372
H       1.83015437      0.63350481      1.28244484
H       2.27554324      1.81024561     -0.04129311
H      -0.46312510      0.05678808      1.56074176
H      -1.99782989     -0.01281410     -1.08070227
H      -2.43597385      0.92832868      0.36360964
