20
b3lypvtz=-182665.63641574
C       2.09806976     -0.81003957      0.33797249
C       0.61883904     -0.57474628      0.53890872
C      -0.38419613     -0.75127755     -0.57312208
N      -1.61373312     -1.44590958     -0.27890205
C      -0.13741114      0.62868089      0.00965173
C       0.57408084      1.64343532     -0.86286197
C      -1.18887232      1.24193247      0.91158206
H       2.69246386     -0.24108651      1.05701383
H       2.43153600     -0.52624196     -0.65998700
H       2.34310965     -1.86636694      0.47395239
H       0.24899011     -0.91828310      1.49918396
H       0.05172326     -0.90194932     -1.56130466
H      -2.32754554     -1.23689979     -0.96691306
H      -1.47330697     -2.44921504     -0.28557644
H      -0.14973872      2.20688029     -1.45782704
H       1.12990111      2.36380365     -0.25647708
H       1.27737948      1.18187990     -1.55525888
H      -1.91419083      1.81885733      0.33023404
H      -0.72724312      1.92518818      1.62952117
H      -1.73517423      0.47803360      1.46058089
