9
b3lypvtz=-233138.01927634
C       1.40855987      0.14091437     -0.01117901
N       0.59559582      1.14237345     -0.01006197
C      -0.76248677      0.84968760      0.00149767
O      -1.66481625      1.64411378      0.00431457
N      -1.02587317     -0.54064278      0.01029144
N      -0.13482478     -1.52155014      0.00850323
N       1.09995874     -1.21045270     -0.00220987
H       2.47469768      0.34088183     -0.02011216
H      -1.99081114     -0.84532541      0.01895611
