18
b3lypvtz=-202792.57329817
N       2.27285357     -0.51618917      0.30315634
C       1.26526749     -0.31401903     -0.73587095
C      -0.01858003      0.21319361     -0.11519026
N       0.24385210      1.52987741      0.46599857
C      -0.74240471     -0.70559480      0.90007059
N      -2.03225352     -0.37665929      0.24181358
C      -1.31949691      0.09358738     -0.96931569
H       3.16529653     -0.77254026     -0.09956275
H       2.39783969      0.35203855      0.81117189
H       1.06305377     -1.27270843     -1.21844085
H       1.57353399      0.38382734     -1.53365416
H      -0.56852403      1.85312481      0.97906988
H       0.41894957      2.20894037     -0.26804804
H      -0.67740792     -0.41279169      1.94923598
H      -0.42498281     -1.74779300      0.80284133
H      -2.66259863     -1.15535697      0.10117564
H      -1.71154817      1.02060296     -1.39540679
H      -1.23033700     -0.65543980     -1.76535232
