13
b3lypvtz=-216179.66866607
O      -2.33365919     -0.96088851      0.72409996
C      -1.28617791     -0.48055914      0.38245895
C      -1.08116877      0.94843719     -0.13638523
C       0.39640133      1.01122702     -0.40983275
C       1.00044583     -0.14492527     -0.12175298
O       2.31001584     -0.48303513     -0.23128679
C       0.06871846     -1.19608145      0.39326143
H      -1.70877437      1.10673059     -1.01947846
H      -1.42956202      1.66129704      0.61814190
H       0.89615429      1.89093885     -0.79285998
H       2.81008644      0.26813883     -0.57144395
H       0.03876035     -2.08847090     -0.23807558
H       0.31885973     -1.53280913      1.40315349
