15
b3lypvtz=-214488.46951451
C      -1.03477588     -1.08296837     -0.54259620
C      -2.18030899     -0.06052674     -0.46106522
O      -1.51200878      0.67933392      0.59127601
C      -0.41007136     -0.27945320      0.60940967
C       0.90614773      0.39105454      0.38521276
N       1.65107782      0.08745570     -0.59707398
N       2.88087063      0.68223894     -0.70051468
H      -0.45010433     -1.06036857     -1.45716422
H      -1.29988020     -2.10923358     -0.30099266
H      -2.33907377      0.55672917     -1.34800281
H      -3.14103054     -0.45585973     -0.12203295
H      -0.39721591     -0.80239294      1.57272601
H       1.19095490      1.15692323      1.11582162
H       3.18010036      0.70182040     -1.66292675
H       2.95531832      1.59524721     -0.25843253
