16
b3lypvtz=-204448.75882043
O      -2.27925349      0.14056557      0.45527165
C      -1.66162392     -0.87969920     -0.29929338
C      -0.14313248     -0.67413059     -0.39528574
C       0.59853778     -0.74851198      0.91311917
C       1.39803512      0.29565643      1.07827386
C       1.30687655      1.23150587     -0.09293708
N       0.14690421      0.70798307     -0.83820426
H      -1.83026799      0.95464625      0.18308446
H      -2.07655167     -0.92530377     -1.31632597
H      -1.88040460     -1.83288610      0.18745433
H       0.24935456     -1.43389993     -1.09103692
H       0.47713122     -1.57260687      1.60133117
H       2.04783187      0.47504502      1.92282739
H       2.23666337      1.21483924     -0.68097830
H       1.14425513      2.27047253      0.21119844
H       0.26554433      0.77642446     -1.83839882
