17
b3lypvtz=-215293.51009702
C       2.65014163     -0.28026000     -0.08411194
N       1.29523403     -0.64025038     -0.45769603
C       0.34821165      0.12276612     -0.07671416
N       0.46039684      1.29667268      0.62430576
C      -1.08554053     -0.28211875     -0.41262226
C      -1.63575995     -1.25846063      0.61785736
O      -1.97159114      0.84483920     -0.43319714
H       2.94262562      0.70491286     -0.47296253
H       2.79621987     -0.25900587      1.00589196
H       3.34510262     -1.01435666     -0.48892301
H      -0.38685879      1.73059004      0.94806380
H       1.31528195      1.51998267      1.10023938
H      -1.05592961     -0.76640269     -1.39076396
H      -1.66404917     -0.79632783      1.60611505
H      -1.00466761     -2.14419542      0.66196704
H      -2.64968411     -1.55179758      0.34652257
H      -1.75793729      1.38757826     -1.19887389
