15
b3lypvtz=-214527.56203697
C      -1.59663305     -1.49105325     -0.06934818
C      -1.16271304     -0.23685233      0.00939433
O      -1.98444670      0.86204644      0.10653336
C       0.28350596      0.14578220      0.00055562
N       0.51850205      1.49637682     -0.12000321
N       1.16859745     -0.77216899      0.06219777
C       2.55851945     -0.37218611      0.02453960
H      -2.65250273     -1.72809237     -0.05113028
H      -0.87999781     -2.29195010     -0.14370314
H      -2.90200010      0.57344458      0.07992026
H      -0.25309590      2.11965862      0.04104830
H       1.43251752      1.84304681      0.10929892
H       2.81480989      0.16316676     -0.90015853
H       2.83219221      0.28208826      0.86633075
H       3.19193381     -1.25573634      0.08390846
