14
b3lypvtz=-180399.75941305
N      -2.66365531     -0.02352782     -0.62836052
C      -1.67846033     -0.00074544     -0.03327987
C      -0.41948319      0.02600793      0.71846268
C       0.43434886      1.22363571      0.33300537
C       1.52534457      0.85968327     -0.32794351
C       1.62111197     -0.62986401     -0.52288935
C       0.51252438     -1.18596123      0.40057577
H      -0.68864507      0.04474964      1.77750520
H       0.13040484      2.23655663      0.55440464
H       2.26007443      1.54919786     -0.72165555
H       1.45106213     -0.88897244     -1.57248278
H       2.60477388     -1.02523719     -0.26259316
H      -0.03293312     -2.01796146     -0.03823114
H       0.94865297     -1.53305345      1.33645324
