16
b3lypvtz=-204431.16984283
C      -0.33744318     -1.18593139      0.66713543
C       0.70645681     -0.86266235     -0.42146134
C       1.46648840      0.40894227     -0.03719692
O       0.59234491      1.53802550      0.01615969
C      -0.76910817      1.26599456      0.35421761
C      -1.18025278     -0.13944041     -0.09056770
N      -0.43719057     -0.53432455     -1.32564026
H      -0.74004993     -2.19092168      0.56814278
H      -0.07542126     -0.97735617      1.70379972
H       1.37797066     -1.65000846     -0.76624234
H       2.22172901      0.65722643     -0.78631529
H       1.97794538      0.26726294      0.92445855
H      -0.93275648      1.38391323      1.43386496
H      -1.35774359      2.02895825     -0.16018299
H      -2.26433086     -0.25394976     -0.12746468
H      -0.24863834      0.24427157     -1.95270720
