11
b3lypvtz=-213016.82389852
N       3.43699827     -0.23019309     -0.00001483
C       2.31718176      0.04578939      0.00000293
C       0.94399074      0.41351674      0.00000235
C      -0.04565625     -0.48623117      0.00000319
C      -1.46993890     -0.12639522      0.00000040
N      -2.45118061     -0.93143629     -0.00000109
O      -1.68983347      1.20786349     -0.00000104
H       0.72289419      1.47283930      0.00000205
H       0.17533655     -1.54515814      0.00000579
H      -2.14652842     -1.90000915     -0.00000010
H      -2.64971885      1.33047314     -0.00000365
