17
b3lypvtz=-171063.32904567
C      -1.20389499      1.88062267     -0.22933770
C      -0.76091566      0.66260867      0.10380303
C       0.63040506      0.34070785      0.05402669
C       1.79400472      0.02815852      0.03195192
C       3.20455425     -0.32743022      0.00039594
C      -1.69689722     -0.44321597      0.54878159
C      -1.72831201     -1.63856002     -0.41025436
H      -2.25856144      2.11911104     -0.18592013
H      -0.52788431      2.66162317     -0.54813156
H       3.68177351     -0.12637360      0.96232792
H       3.73782315      0.24519277     -0.76118856
H       3.33986882     -1.38787442     -0.22189544
H      -1.38513139     -0.78802336      1.53885067
H      -2.69990922     -0.02674841      0.65686011
H      -2.39682822     -2.41489224     -0.03489617
H      -2.07983558     -1.33662773     -1.39812803
H      -0.73579947     -2.07482571     -0.52605094
