14
b3lypvtz=-226984.42827443
C      -1.88935050      1.13230363     -0.83563665
C      -1.08877000      0.18182550     -0.35564139
C      -1.49626264     -1.25390223     -0.34784060
O      -2.44814636     -1.70852262     -0.93421682
O       0.09003865      0.46930909      0.28080912
C       1.28711003      0.03623344     -0.42626098
N       2.40906058      0.18263794      0.42551710
H      -2.85007671      0.85871254     -1.24668853
H      -1.60616377      2.17409844     -0.79358783
H      -0.85001791     -1.89614282      0.28445695
H       1.13912788     -1.00091712     -0.74349654
H       1.37679746      0.66048408     -1.31931857
H       2.82280218     -0.67464195      0.75021329
H       3.10385109      0.83842207      0.11179145
