17
b3lypvtz=-194366.36576652
C      -1.13755627      1.18056881      0.83616206
C      -1.05036925     -0.00047938      0.21748826
C      -2.19301436     -0.54138639     -0.60193862
C       0.16725200     -0.85121144      0.20700902
C       1.42716266     -0.54554069      0.99511004
C       1.42888621     -0.33705673     -0.48467649
O       1.47085544      0.94411786     -1.03095630
H      -2.03549360      1.78011720      0.76726194
H      -0.34293599      1.57231031      1.45661111
H      -2.52766541     -1.50354669     -0.20418572
H      -1.88140193     -0.71925644     -1.63457683
H      -3.04289323      0.13939598     -0.60918765
H      -0.03698165     -1.90235404      0.04283130
H       1.43610649      0.34343377      1.61065889
H       1.96746008     -1.38445329      1.41274401
H       1.96987358     -1.03718085     -1.10730153
H       0.66445622      1.41323001     -0.77147348
