12
b3lypvtz=-226226.25982583
O      -2.26899891      0.68003399      1.43422920
C      -1.36834832      0.57663390      0.64363620
C      -0.46185639     -0.60120206      0.57287393
C      -0.01751965     -1.03153868     -0.81424744
N       0.89666986     -0.41424969      0.08887849
C       1.54660354      0.79545902     -0.12637895
O       2.01645738      1.13488544     -1.18165466
H      -1.15905073      1.36745006     -0.10798660
H      -0.60428766     -1.34758239      1.34437878
H       0.11559283     -2.09018965     -0.99535282
H      -0.35261694     -0.44497102     -1.66281731
H       1.65745498      1.37517106      0.80444117
