10
b3lypvtz=-279656.82207643
C       0.86804069      0.37851315     -0.17310555
C       1.76308368     -0.44941380      0.35406797
F       3.07292379     -0.19096289      0.27426759
C      -0.55129391      0.13874041     -0.10975666
N      -1.41537918      0.92200443     -0.60918042
O      -2.73888934      0.56720854     -0.47400410
F      -0.93585894     -1.00319186      0.53105222
H       1.17842721      1.28105196     -0.67923483
H       1.54611406     -1.37023746      0.87574907
H      -2.78716804     -0.27371246      0.01014472
