12
b3lypvtz=-202902.57934223
C      -2.13100750     -1.43352072     -0.14698306
C      -1.07289484     -0.86336156     -0.10933115
C       0.14520400     -0.12946740     -0.04688767
C       0.08405693      1.29599624      0.31576964
N      -0.94179045      1.99051874      0.59247257
C       1.30912216     -0.76657828     -0.32186949
O       2.54999000     -0.25381867     -0.31748582
H      -3.05638602     -1.95211824     -0.18500442
H       1.04018305      1.82641830      0.35254877
H      -1.78867350      1.41928460      0.53480119
H       1.32054459     -1.81530718     -0.58477913
H       2.54155158      0.68185415     -0.08325143
