13
b3lypvtz=-213747.05330983
C      -2.31921429      0.83080529      0.03026587
N      -1.07249897      0.74839299     -0.16392694
C      -0.39881005     -0.44469642      0.10712201
C      -0.71675514     -1.65351195     -0.34829422
O       0.71923325     -0.25622593      0.90109856
C       1.85670487      0.28771674      0.34277400
N       2.10220722      0.59826316     -0.84573548
H      -2.83503458      1.74969527     -0.23467445
H      -2.91070167      0.01658886      0.45872478
H      -0.07069364     -2.49588712     -0.15520848
H      -1.60674867     -1.80446789     -0.93915152
H       2.59136699      0.41154117      1.13157832
H       1.31636367      0.43806883     -1.47424546
