17
b3lypvtz=-194362.87793082
C       3.42513182     -0.21107021      0.54383863
C       2.36667307     -0.35546200     -0.24095041
C       1.18412237      0.55876852     -0.24413066
O       0.00000022     -0.21631043     -0.13497000
C      -1.18412194      0.55876845     -0.24413073
C      -2.36667258     -0.35546214     -0.24095013
C      -3.42513162     -0.21106976      0.54383840
H       3.48728329      0.58815118      1.27320774
H       4.27084898     -0.88321374      0.48472411
H       2.32198951     -1.17138062     -0.95510969
H       1.25397501      1.28189509      0.57938718
H       1.15813248      1.13299361     -1.18386119
H      -1.25397454      1.28189522      0.57938693
H      -1.15813219      1.13299332     -1.18386141
H      -2.32198874     -1.17138131     -0.95510877
H      -3.48728340      0.58815219      1.27320687
H      -4.27084874     -0.88321337      0.48472410
