13
b3lypvtz=-237079.8076369
C      -2.61491893      0.67713025      0.00031177
O      -2.01345988     -0.63027647      0.00015196
C      -0.68808890     -0.68971982     -0.00003498
N       0.05278893      0.34492883     -0.00000759
C       1.43858514      0.19339120     -0.00015365
N       2.27381940      1.14550371     -0.00018208
O       1.88772473     -1.09244499     -0.00023315
H      -2.31286237      1.23245319      0.88655985
H      -3.68612836      0.50096408      0.00085556
H      -2.31374831      1.23223800     -0.88637721
H      -0.34022575     -1.71913508     -0.00007415
H       1.78366039      2.03451655     -0.00010717
H       2.85232193     -1.03347845     -0.00033617
