15
b3lypvtz=-214543.39977996
C      -2.09404808     -0.70714619     -0.54011433
C      -1.11829530     -0.16607684      0.50301842
C      -0.67762918      1.30584967      0.22212261
N       0.64823086      1.10084731     -0.37246570
C       1.02424761     -0.17004160      0.01088184
O       2.31109640     -0.49635562     -0.19665623
N       0.13740502     -0.94314463      0.49667863
H      -3.04142996     -0.16414115     -0.50753056
H      -1.67626490     -0.61271573     -1.54439726
H      -2.29419455     -1.76231241     -0.35458891
H      -1.58078410     -0.24230779      1.48881069
H      -1.34798748      1.82111174     -0.46618913
H      -0.61454300      1.88748304      1.14693364
H       1.34063570      1.83056803     -0.30855843
H       2.40822996     -1.41543984      0.08484271
