13
b3lypvtz=-211376.35746348
N      -2.34011228      0.42985808     -0.40756736
C      -1.38765863     -0.64555127     -0.16875079
C       0.06852056     -0.26696943     -0.16641568
N       0.49459904      0.96832760     -0.36577097
N       1.84054920      0.83123238     -0.27660775
H       2.43900260      1.63105204     -0.38998128
C       2.15932758     -0.45251526     -0.03317400
N       1.06637249     -1.17860923      0.04342145
H      -2.21934335      1.15617701      0.28905398
H      -2.14152346      0.87278274     -1.29744073
H      -1.53524865     -1.42507779     -0.92030523
H      -1.61761343     -1.11856867      0.78925694
H       3.17302833     -0.80223820      0.07758143
