15
b3lypvtz=-214554.11599142
C       3.11405273      0.20851466      0.03574366
C       1.62651198      0.21850912      0.21765750
C       0.84311189     -0.79711392     -0.15246810
N      -0.54743415     -0.91822835     -0.06689259
C      -1.56400174      0.02405824      0.00845838
N      -1.19328902      1.33936278     -0.14169278
O      -2.71480375     -0.32352772      0.20320990
H       3.62826095      0.34064500      0.99168926
H       3.45823956     -0.72834711     -0.40468248
H       3.44868248      1.02264805     -0.61371313
H       1.19938052      1.08851351      0.70039585
H       1.30101072     -1.68585368     -0.57449554
H      -0.92090429     -1.85293309     -0.04524795
H      -1.97279290      1.95482011     -0.30432528
H      -0.34619199      1.54862741     -0.64462769
