11
b3lypvtz=-238729.50459825
C      -1.99747546     -0.52021089     -0.64978770
C      -1.02750086      0.10019716      0.02061586
C       0.38667907     -0.12168917     -0.31233759
O       0.80108052     -0.85718755     -1.18952928
C       1.43081378      0.64970351      0.52964332
O       1.13921979      1.40138766      1.41846348
O       2.68144292      0.38173619      0.15278797
H      -3.04025364     -0.36264921     -0.41078558
H      -1.76225881     -1.20278288     -1.45675983
H      -1.22979803      0.78666906      0.83018965
H       2.61815071     -0.25517388     -0.58420031
