16
b3lypvtz=-181130.70862793
C      -2.19790591     -1.14644800      0.47155209
C      -1.55831447     -0.03584405     -0.38270914
C      -2.04483510      1.35932930      0.04592505
C      -0.09988309     -0.12889137     -0.34336742
C       1.10255077     -0.20638982     -0.28763584
C       2.52719368     -0.32556327     -0.25242355
N       3.33470525      0.33850777      0.47630496
H      -3.28485654     -1.09690980      0.39313496
H      -1.92365530     -1.02993556      1.52078613
H      -1.87261307     -2.13294883      0.14282484
H      -1.86459253     -0.19573013     -1.42220939
H      -3.13086590      1.41874897     -0.03961783
H      -1.77141459      1.56073167      1.08236680
H      -1.60776371      2.13824072     -0.57808536
H       2.95516076     -1.06890322     -0.92636137
H       2.82233376      1.00018361      1.06275506
