15
b3lypvtz=-214554.91560164
C      -2.49059667      0.71410288     -0.12742510
C      -1.23000281     -0.10137760      0.01536131
N      -1.17714988     -1.36607783     -0.10248151
C       0.00490569      0.71083777      0.34727667
C       1.41635862      0.19255053      0.03801792
N       1.58649676     -1.14784017      0.05625829
O       2.31667803      0.99364419     -0.14468977
H      -2.63205384      1.36186714      0.74073702
H      -3.36797428      0.07810877     -0.23940897
H      -2.41668938      1.36892536     -0.99904316
H      -2.09206781     -1.76547044     -0.30439217
H      -0.01997236      0.90699772      1.42606174
H      -0.06056195      1.69205066     -0.12211905
H       0.76387213     -1.74031720      0.03047856
H       2.49320877     -1.50120878     -0.19974080
