18
b3lypvtz=-181896.7416967
C       2.69002582     -0.27356958      0.02102757
C       1.43855915     -0.74691181      0.04675249
N       0.29120758     -0.04350660     -0.23368738
C       0.16564640      1.41669916     -0.19876404
C      -1.33141193      1.24357632      0.14750513
C      -1.02453162     -0.25526070      0.40885493
C      -1.91432710     -1.30485470     -0.22708738
H       2.91216551      0.75787455     -0.21615799
H       3.52302133     -0.93243171      0.21105019
H       1.25664990     -1.79203257      0.27750483
H       0.75285155      1.87217277      0.60821476
H       0.41085662      1.91825582     -1.13646156
H      -1.70262638      1.81479499      0.99428579
H      -1.98991982      1.39280579     -0.70680224
H      -0.91837942     -0.45561595      1.48318649
H      -1.49303910     -2.30520406     -0.10828240
H      -2.03412029     -1.11117287     -1.29396216
H      -2.90069919     -1.30295684      0.24245595
