17
b3lypvtz=-194373.15457817
C       2.68719016      0.48763945      0.12287216
C       1.20291860      0.65719545      0.22955598
C       0.34899708     -0.27889664      0.64291363
C      -1.12410068     -0.12489344      0.74535826
C      -1.91031881      0.74321802     -0.18940023
C      -2.02563193     -0.75224167     -0.30423177
O       0.82119617     -1.50716125      1.06209583
H       2.98489105     -0.53918238      0.32610582
H       3.21331571      1.13619330      0.82998037
H       3.04407204      0.75782870     -0.87494639
H       0.78461668      1.62012196     -0.03132447
H      -1.49949517     -0.18371329      1.76276242
H      -1.37106872      1.25996422     -0.96977910
H      -2.74741879      1.29213161      0.21837851
H      -1.54937670     -1.22134249     -1.15443112
H      -2.93962570     -1.22790033      0.02367809
H       0.07983897     -2.11896122      1.10578446
