19
b3lypvtz=-192741.63927712
C      -3.26339603      0.29502700      0.03067195
C      -1.99165345     -0.48036612      0.34429369
N      -0.84428447      0.08161357     -0.36423230
C       0.37272957     -0.63577340     -0.18691488
C       1.56033059     -0.03933259     -0.00773250
C       1.73505915      1.44499711      0.10079944
N       2.76122893     -0.76466734      0.00124879
H      -3.14994398      1.34635203      0.29781252
H      -3.50385597      0.24190565     -1.03437462
H      -4.11254945     -0.11307743      0.58035908
H      -1.77850891     -0.42995220      1.41477269
H      -2.14204316     -1.54716769      0.10778892
H      -1.07118252      0.18716264     -1.34743738
H       0.32836491     -1.72802315     -0.22077743
H       0.76697365      1.93432780      0.15534360
H       2.31503648      1.69819624      0.99423648
H       2.28492125      1.83572799     -0.75919610
H       2.64088212     -1.76225915      0.10664381
H       3.44608929     -0.41331895      0.65526725
