16
b3lypvtz=-227754.66535547
C       0.65760389      1.81780868     -0.22622853
C       0.10886124      0.41407208      0.02883252
O       0.13236780      0.19598748      1.43318440
C       0.99191004     -0.60730317     -0.69061422
N       1.78191125     -1.42866274     -0.15171339
C      -1.33234618      0.30538716     -0.47795797
O      -1.84026573     -0.95105997     -0.03096147
H       0.02434186      2.56121697      0.25869206
H       1.66285441      1.89715067      0.18591390
H       0.70540549      2.03607066     -1.29418463
H      -0.48565720     -0.52655396      1.60868571
H       0.93214821     -0.58312216     -1.78275485
H       1.73128671     -1.32578203      0.86650266
H      -1.91622241      1.13294261     -0.06364856
H      -1.35195065      0.37312826     -1.57137434
H      -2.79320675     -0.97174954     -0.15064629
