22
b3lypvtz=-183430.31696313
C       2.44496797     -0.80344957     -0.43488493
C       1.26509556      0.15148411     -0.23225581
C       1.54068529      1.14843240      0.89549446
C      -0.01714161     -0.65244725      0.02869524
N      -1.23065442      0.15466407      0.13098391
C      -2.30224750     -0.56355015      0.80135998
C      -1.67546786      0.66594356     -1.15559777
H       3.36310096     -0.25249357     -0.64560512
H       2.26853813     -1.48924072     -1.26607215
H       2.62003529     -1.40454848      0.46161808
H       1.13661113      0.71515459     -1.16147520
H       0.68603566      1.80491156      1.05397339
H       2.41514864      1.76280454      0.67250656
H       1.73557030      0.62256208      1.83470429
H       0.10577231     -1.18322781      0.97713027
H      -0.12510457     -1.42826251     -0.75184669
H      -2.63091314     -1.46356765      0.25131592
H      -1.97776788     -0.87490926      1.79469445
H      -3.16820877      0.08975841      0.91785791
H      -2.55316262      1.29813313     -1.01623194
H      -0.89965934      1.27425938     -1.61815523
H      -1.94374854     -0.13967086     -1.86290662
