13
b3lypvtz=-216146.76343723
C      -0.56724722      1.02895103      0.24696385
C      -1.06627883     -0.45494549      0.31237338
C       0.13863333     -1.12754925     -0.36130735
C       1.34173407     -0.43749903      0.31117181
O       2.31947753     -0.73964217      0.91854953
C       0.78108182      0.78276544     -0.44553032
O       0.43420254     -0.21096648     -1.47414296
H      -1.21153191      1.65807786     -0.36413331
H      -0.45492061      1.49080581      1.22792050
H      -1.22924599     -0.81177045      1.32934794
H      -1.97567501     -0.61391101     -0.26379071
H       0.10787461     -2.17649260     -0.63512567
H       1.38189567      1.61217635     -0.80229669
