10
b3lypvtz=-223091.27979844
O       1.45572738     -0.33745049      0.66700506
C       2.33677515      0.06721552     -0.05631716
C       3.01924405     -0.79321184     -1.02870343
N       3.98974021     -0.44348901     -1.86040881
C       4.25189252     -1.59386585     -2.52106744
N       3.50690486     -2.63061978     -2.15174156
N       2.72867015     -2.10051734     -1.20098793
H       2.03821128     -2.65086178     -0.71529760
H       2.69347027      1.11003402     -0.04048059
H       5.00116412     -1.68323346     -3.28940054
