17
b3lypvtz=-217679.74722579
O      -2.85685072      0.74196560     -0.24500286
C      -2.37574990     -0.59188102     -0.23217961
C      -0.93586501     -0.74312853      0.17036839
C      -0.09512081      0.25378662      0.42957304
C       1.34542037      0.08859208      0.81449203
C       2.29529467      0.55242051     -0.29696039
O       2.18620889     -0.23565145     -1.47270744
H      -2.83619896      1.07926095      0.65636811
H      -2.51514457     -0.96591939     -1.25057516
H      -2.99760026     -1.22845667      0.41240254
H      -0.59285124     -1.77102049      0.26299525
H      -0.45198803      1.27423733      0.31791353
H       1.56240496      0.67577869      1.71340104
H       1.56018287     -0.95713399      1.04504290
H       2.11851046      1.61327734     -0.51808978
H       3.32921088      0.45345043      0.03476401
H       1.26013642     -0.23977800     -1.73960560
