17
b3lypvtz=-217681.94365327
C       3.26277669     -0.54567614      0.07489326
O       2.17685851      0.21871298     -0.40483993
C       0.97516900     -0.01769617      0.29951406
C      -0.11409531      0.85428944     -0.30671477
C      -1.48010174      0.71548945      0.38595144
C      -2.22871792     -0.54255297      0.02016712
O      -3.40385899     -0.58235672     -0.23952279
H       3.48251271     -0.31919705      1.12586229
H       4.13088304     -0.29151833     -0.53037088
H       3.06889223     -1.62204015     -0.01454833
H       1.10345003      0.22739649      1.36487566
H       0.71201000     -1.08374525      0.24378600
H      -0.20270368      0.62411875     -1.37117968
H       0.21192237      1.89359843     -0.24286681
H      -2.12859843      1.56116999      0.15745162
H      -1.34018844      0.70410900      1.47457513
H      -1.62451308     -1.47474175      0.00103462
