17
b3lypvtz=-191963.0410465
C       2.97155204     -0.56689032     -0.22102619
C       2.00164055      0.42231181      0.42014338
N       0.62726237     -0.01067815      0.23760000
C      -0.19022445      0.75756512     -0.34365782
C      -1.60865040      0.37656591     -0.54648054
C      -2.43787319      0.03546815      0.65057352
N      -2.01969103     -1.00413705     -0.28323720
H       2.81989456     -0.61331665     -1.30051960
H       2.82099164     -1.56773051      0.18426767
H       4.00381219     -0.26772884     -0.03259141
H       2.19351683      0.46508675      1.49609239
H       2.16589770      1.43235098      0.01779327
H       0.10747884      1.74322191     -0.72730006
H      -2.09741045      0.84957718     -1.39032449
H      -1.94649957      0.09544262      1.61415737
H      -3.49542860      0.26919804      0.64632031
H      -1.20818103     -1.48812695      0.09578237
