15
b3lypvtz=-191219.07365185
N       2.80481896     -0.46839008      0.24857404
C       1.73817716     -0.19052653     -0.08526093
C       0.38688171      0.17733271     -0.45999601
C      -0.14526387      1.59328236     -0.08821908
C      -1.52029479      0.95073654      0.21023988
C      -0.80724588     -0.42849815      0.34561410
N      -1.36375391     -1.66146611     -0.14689581
H       0.24249909     -0.01943070     -1.52395238
H       0.33702222      1.97092643      0.81124389
H      -0.09044141      2.35052523     -0.86629579
H      -2.16934911      0.96524617     -0.66757412
H      -2.08024381      1.31780960      1.06870459
H      -0.49177524     -0.58290176      1.37756598
H      -1.98870987     -2.09009562      0.52306286
H      -1.87513926     -1.52784408     -1.01084822
