16
b3lypvtz=-204473.22082145
C       2.14272940     -0.90170133     -0.00008133
C       1.20438952      0.04175328     -0.00004738
C       1.53777602      1.51097919      0.00000931
C      -0.23570656     -0.41700993     -0.00004725
O      -0.54481302     -1.59883061      0.00000670
N      -1.16847262      0.57995280      0.00004800
C      -2.59470345      0.31820190     -0.00009081
H       3.19566707     -0.65204293     -0.00007006
H       1.86135908     -1.94510143     -0.00012281
H       2.61653735      1.65837444      0.00006655
H       1.13745756      2.01885467      0.88218754
H       1.13755874      2.01890553     -0.88218921
H      -0.85980882      1.53480852     -0.00031457
H      -2.73366844     -0.75925368      0.00091636
H      -3.07240400      0.73756775     -0.88805529
H      -3.07278982      0.73933983      0.88681326
