17
b3lypvtz=-191946.76270401
C       2.82044768      0.29161077      1.63684925
C       2.33569953     -0.11553329      0.61667720
C       1.71201930     -0.57343756     -0.63456351
N       0.34135560     -0.11868824     -0.86265718
C      -0.63501769     -0.60465833      0.10902942
C      -2.05091575     -0.14889037     -0.24773133
N      -2.29661494      1.29353601     -0.23907317
H       3.25524152      0.64421042      2.53863376
H       1.71903434     -1.66627300     -0.65882308
H       2.32730873     -0.24378514     -1.47512679
H       0.33203196      0.89478092     -0.86869272
H      -0.60396754     -1.69853906      0.09567807
H      -0.40104515     -0.29253574      1.13910679
H      -2.74679284     -0.61480876      0.45473260
H      -2.30385925     -0.52135703     -1.24211855
H      -1.80896267      1.75905130     -0.99370073
H      -1.99586281      1.71541709      0.63187996
