10
b3lypvtz=-223004.71000332068
C      -1.58556506     -0.69578725     -0.27046304
C      -0.37894041     -0.09607226     -0.29266530
C       0.52162632      0.00177261      0.82586590
N       1.69442449      0.58178578      0.81507964
N       2.71467141      1.04183782      0.95016952
N      -0.06993293      0.45470677     -1.58772606
O       1.00599304      1.00526694     -1.65944363
H      -1.98841156     -1.16616479      0.61471502
H      -2.17090830     -0.70428962     -1.17725840
H       0.25704300     -0.42305601      1.78172636
