16
b3lypvtz=-204419.84208573
C       2.66398122      0.63303968      0.21779303
C       1.44307809      0.04399150     -0.43022648
O       1.01996540     -1.24654698      0.03949378
C       0.16567460     -0.11783697      0.27275859
C      -1.14614691     -0.11271292     -0.43176246
C      -2.39186115     -0.35097037      0.33435417
N      -2.09032394      0.98989136     -0.18932854
H       3.56720646      0.14334594     -0.15078340
H       2.62705157      0.50945551      1.30015430
H       2.74258361      1.69808836     -0.01076942
H       1.39615366      0.14061193     -1.51308508
H       0.12181875      0.19615130      1.31630837
H      -1.10194831     -0.43810673     -1.46502216
H      -3.22876010     -0.84833966     -0.13869918
H      -2.30006745     -0.52776498      1.39995901
H      -1.74577750      1.58944803      0.55483348
