15
b3lypvtz=-216907.62711432
C      -1.77620745     -0.22678085     -0.15326144
C      -1.05434844      1.12969202     -0.12250269
C       0.28992125      0.79056849      0.52895179
O       1.43089766      0.84642715     -0.36674149
C       1.63479040     -0.58680849     -0.26255229
C       0.35697504     -0.74695904      0.56642028
O      -0.74833903     -1.22324028     -0.18295317
H      -2.40279459     -0.35857673      0.73768275
H      -2.39886553     -0.37266775     -1.03434337
H      -0.86913135      1.50448567     -1.12855382
H      -1.61504368      1.88269953      0.43069955
H       0.48965354      1.33490445      1.45291537
H       1.61763729     -1.08468704     -1.23279252
H       2.56178429     -0.81809102      0.26787236
H       0.43336160     -1.25558311      1.52931769
