15
b3lypvtz=-191208.15726487
C       1.95273671      1.28464243      0.32625316
C       0.73727595      1.22830736     -0.22993238
C      -0.24448164      0.15211034     -0.14741041
C       0.04839622     -1.17239956     -0.09243096
N       1.29583379     -1.74935591      0.01182155
N      -1.57592408      0.58456427     -0.31801179
C      -2.52258890      0.06476162      0.34405328
H       2.58798015      2.14585978      0.17119532
H       2.33118565      0.52386932      0.99633192
H       0.38887090      2.07978824     -0.80633265
H      -0.76520674     -1.88272262     -0.16795749
H       1.39250823     -2.64725263     -0.43673391
H       2.07984919     -1.13579957     -0.16062661
H      -2.37166763     -0.69006269      1.12348711
H      -3.54293281      0.38055862      0.14346986
