13
b3lypvtz=-213769.37237227
O       1.65583638      2.05364864      0.13025944
C       0.98703203      1.05421695      0.18413638
N       1.32553313     -0.18779270     -0.28761425
C       0.34058260     -1.22142989     -0.04389627
C      -0.80909495     -0.40061249      0.52719801
C      -1.35735749      0.71276962     -0.27224219
N      -0.33417831      0.97540942      0.76802992
H       2.22572454     -0.34680065     -0.70530286
H       0.07071030     -1.75982085     -0.95635488
H       0.68717730     -1.95214981      0.69250421
H      -1.40409760     -0.84257224      1.31451805
H      -1.05006768      0.80682158     -1.30747147
H      -2.33780026      1.10821241     -0.04366408
