18
b3lypvtz=-205201.50783994
C      -1.60671020      0.08676587     -1.36006450
C      -1.06377288      0.30877547      0.04879253
N      -1.21103979     -0.91252644      0.84347452
C       0.40419034      0.71150041      0.00752976
C       1.47183221     -0.33818774     -0.36360023
C       2.08937921      0.00761282      0.99939673
O       0.96712551      0.85937334      1.34114084
H      -1.08482784     -0.73701741     -1.84953921
H      -1.49569102      0.98437584     -1.97068225
H      -2.66904054     -0.16261862     -1.32922645
H      -1.59768393      1.16243198      0.49514473
H      -0.89552447     -0.73419368      1.79010262
H      -2.18455523     -1.18654347      0.89588264
H       0.50019007      1.65005647     -0.54950027
H       1.07481337     -1.34783273     -0.42353585
H       2.07734727     -0.11682406     -1.23937604
H       3.02079420      0.57860159      0.95488929
H       2.20317372     -0.81374963      1.70927116
