13
b3lypvtz=-213786.08181377
C      -2.48311939     -0.51747135     -0.00002077
C      -1.08806736     -0.00096798     -0.00000647
C      -0.56172201      1.25470328      0.00004926
N       0.82407662      1.22875089     -0.00013312
C       1.13128078     -0.02995419      0.00001646
O       2.40154780     -0.49351902     -0.00000445
N       0.02914100     -0.83987095      0.00000599
H       0.00910824     -1.84497901     -0.00002096
H      -3.18024438      0.31921067      0.00000180
H      -2.69944103     -1.12680064      0.88259126
H      -2.69946558     -1.12677811     -0.88264373
H      -1.09883043      2.18858580      0.00013584
H       2.41446172     -1.45499838      0.00017889
