15
b3lypvtz=-191206.91025294
C      -1.46704277     -1.06424403     -0.16968136
C      -2.05822342      0.09452339      0.68368315
N      -0.85377472      0.86796712      0.33508808
C      -0.20977617     -0.21624373     -0.24732324
C       1.04491627     -0.43621172     -0.67899330
C       2.10788027      0.53681583     -0.61199457
N       3.29510919      0.28495981     -1.01761451
H      -1.35474992     -2.01925567      0.33894629
H      -1.96416786     -1.21977714     -1.12588472
H      -2.14387696     -0.14671472      1.74542597
H      -2.98995752      0.53951860      0.33446270
H      -0.41728595      1.56475786      0.91828173
H       1.28159361     -1.39969349     -1.11105824
H       1.83278833      1.51626404     -0.19734950
H       3.89656764      1.09733385     -0.89386471
