13
b3lypvtz=-239659.61088743
C       0.26894636      1.76047280      0.11460913
C      -0.43923527      0.43681233      0.06878521
N       0.23008281     -0.78196632      0.27795257
C       1.44163785     -1.02615961      0.12448136
F       2.37418409     -0.16041897     -0.34429423
N      -1.71350841      0.42503211     -0.09540321
N      -2.35697255     -0.76559728     -0.19886982
H       0.93473019      1.89427211     -0.73903798
H      -0.47539578      2.55319563      0.11018331
H       0.87855205      1.84933841      1.01655135
H       1.89685517     -1.98394817      0.34721291
H      -3.31834045     -0.67793282      0.08796364
H      -1.86216207     -1.55869223      0.20039275
