17
b3lypvtz=-171024.22448758
C       0.39434917     -0.68233243      0.13983250
C       0.10367643     -0.13236457      1.50739705
C       0.07482391      1.34109240      1.96231256
C      -0.26315101      0.54903782      3.23428949
C       0.72850851     -0.60553311      2.87471426
C      -0.34438598     -1.68886736      3.08036608
C      -1.10358700     -0.50967018      2.44782605
H      -0.32258122     -0.30599669     -0.59365646
H       0.34149901     -1.77339110      0.12974100
H       1.39379605     -0.39303729     -0.19342215
H       1.02820810      1.87517866      1.95339261
H      -0.71852500      1.96694512      1.54617107
H      -0.47785069      0.91316684      4.23769599
H       1.79185936     -0.63196476      3.11295320
H      -0.25332224     -2.59927311      2.48482639
H      -0.59798079     -1.93474150      4.11348201
H      -2.15993662     -0.42524874      2.19237831
