18
b3lypvtz=-181918.03543376
C      -3.45204826      0.24586391     -0.00714999
C      -2.14412000     -0.48083578      0.01079833
C      -0.93901945      0.10494163     -0.00139126
C       0.32306011     -0.59838709      0.01819265
C       1.56077605     -0.05963660      0.00607801
C       1.87041485      1.40867875      0.00481828
N       2.70385838     -0.85776577     -0.08706619
H      -3.30775195      1.32724317     -0.03057958
H      -4.05718386      0.00749395      0.87354115
H      -4.05415423     -0.03077547     -0.87861967
H      -2.19591138     -1.56673352      0.03439383
H      -0.90989100      1.19032790     -0.02815050
H       0.25703398     -1.68392630      0.02802403
H       2.41860951      1.68030281     -0.90081781
H       0.97710018      2.02206664      0.06359525
H       2.50834556      1.66527865      0.85678517
H       2.56003508     -1.83644587      0.11085506
H       3.51960644     -0.49654700      0.38410725
