13
b3lypvtz=-213749.1276177
C      -3.06305501      0.30792273      0.00002096
N      -2.08805583     -0.50672311      0.00001575
N      -0.84888594      0.16195511     -0.00002831
C       0.13752491     -0.64351090     -0.00002474
C       1.54364353     -0.13342592     -0.00003480
C       1.77526882      1.35474692      0.00000159
O       2.44618209     -0.94440188      0.00003790
H      -2.92050420      1.38778295     -0.00000968
H      -4.06611016     -0.10264446      0.00005258
H       0.01091981     -1.72545114     -0.00000455
H       2.84441577      1.54978359      0.00005011
H       1.30716226      1.81062357     -0.87376921
H       1.30709796      1.81055653      0.87377340
