13
b3lypvtz=-216191.21041017
C      -2.17067285     -0.55346131     -0.45370331
C      -1.05045512     -0.05702340      0.45028925
C      -0.52581300      1.30907562      0.11844433
C       0.77123832      1.23432927     -0.15535121
C       1.20561810     -0.17577451     -0.02449060
O       2.28735991     -0.66512075     -0.18014033
O       0.09970474     -0.91206271      0.33014029
H      -2.43573764     -1.57687417     -0.19179552
H      -1.85991639     -0.52837411     -1.49802350
H      -3.05563904      0.07388308     -0.33537390
H      -1.37661174     -0.09806512      1.49517327
H      -1.15196286      2.18953628      0.11365279
H       1.45141857      2.02220583     -0.43434855
