12
b3lypvtz=-226220.88945543
O       0.81831624      0.32036643     -0.04897467
C       0.24638150      0.17075211     -1.27694821
C       0.10408538     -0.98287143     -1.92792626
O      -0.46484678     -1.07365871     -3.20744084
C      -0.83401664      0.14022238     -3.73646852
C      -0.71743225      1.30075399     -3.10225201
N      -0.22368049      1.39793309     -1.76898913
H       1.23113433     -0.50932240      0.21287273
H       0.36454396     -1.94567206     -1.52044243
H      -1.26137154      0.04595102     -4.72186956
H      -1.05066413      2.21910432     -3.55928135
H       0.44725043      2.14454124     -1.62717977
