17
b3lypvtz=-191971.7639553
N      -2.53722380     -0.67168784      0.14586739
C      -1.28313204     -0.06471416     -0.03373074
N      -1.36306069      1.30914302     -0.23665270
C      -0.12563718     -0.74821760     -0.11810108
C       1.16145386     -0.11687504     -0.50579997
C       2.45153525     -0.61874575      0.07817642
C       1.94855897      0.74191373      0.47547354
H      -3.07655517     -0.26573728      0.90086130
H      -2.46255182     -1.66981751      0.27494268
H      -0.53900785      1.82754594      0.02088635
H      -2.22625703      1.74962528      0.03455513
H      -0.14895813     -1.81814391      0.04665105
H       1.23364565      0.22131930     -1.53661468
H       3.32091077     -0.67522288     -0.56221661
H       2.38623008     -1.40858702      0.81463700
H       1.54735563      0.85227871      1.47398271
H       2.47467451      1.60893901      0.09768620
