13
b3lypvtz=-211372.51476489
N      -1.27902625      1.38405942     -0.06613340
C      -0.13167616      0.57249824      0.07748397
C       1.12323560      0.85349602      0.57080122
N       1.81781197     -0.31379222      0.54295074
H       2.75325114     -0.48337983      0.85977055
N       1.08839387     -1.34638277      0.06037950
C      -0.09181741     -0.81426416     -0.22099172
N      -1.12679124     -1.53920171     -0.81290964
H      -1.58533106      1.43769761     -1.03053766
H      -1.13635913      2.32236253      0.27940093
H       1.55673063      1.77192031      0.92868739
H      -0.96009501     -2.53477503     -0.77349855
H      -2.02832694     -1.31023840     -0.41530332
