18
b3lypvtz=-181892.32173959
C      -2.07825475      0.58911988     -0.61209789
C      -1.45731765      0.08151311      0.67943355
C      -0.54534483     -1.16575267      0.56290730
C       0.65981225     -0.24542225      0.91702482
C       1.63624954      0.01458564     -0.18279575
C       2.95665007     -0.03915518     -0.04711767
N      -0.30235085      0.85960054      1.20544807
H      -2.51880749      1.57853621     -0.46663395
H      -2.87404419     -0.08068387     -0.94719804
H      -1.33818334      0.66187350     -1.41215983
H      -2.24312223     -0.01446219      1.43393259
H      -0.73755727     -1.94011851      1.30282586
H      -0.50482622     -1.62349393     -0.42484912
H       1.20510687     -0.54839632      1.81422274
H       1.21057063      0.27474102     -1.14927146
H       3.41543997     -0.29118697      0.90203363
H       3.62447447      0.16210947     -0.87460718
H      -0.10859500      1.72679252      0.71810233
