15
b3lypvtz=-212139.02899537
C       2.67546220      0.85031479     -1.51134783
N       1.31348443      1.11901727     -1.09956158
C       0.64883161      0.16253680     -0.60825758
N      -0.66403967      0.34604954     -0.21571776
C      -1.41911217     -0.60515179      0.45807903
N      -0.89445213     -1.70129017      0.84333638
N      -2.72655104     -0.16798468      0.67339741
H       3.35869479      1.51189926     -0.97322092
H       2.78926339      1.07591260     -2.57473718
H       2.99210821     -0.18753433     -1.34138091
H       1.00861957     -0.85469998     -0.45154919
H      -1.01185839      1.28955964     -0.27918309
H      -1.58276727     -2.32240306      1.25597090
H      -3.34665887     -0.87911079      1.02573362
H      -3.14102466      0.36288490     -0.07864771
