13
b3lypvtz=-234626.4860368
C      -1.80478281      0.80011342     -0.05158149
C      -0.67453332     -0.17272545     -0.07913007
N       0.53584896      0.19806778      0.02868737
N       1.50231873     -0.75420155     -0.00684273
N       2.82246456     -0.44873903      0.10162533
N       3.17045125      0.73405352      0.23800856
O      -0.97576522     -1.50095799     -0.22627485
H      -2.38093142      0.75396662     -0.98011563
H      -2.48629427      0.58180249      0.77554036
H      -1.41840045      1.80771973      0.07037324
H       1.29155173     -1.73305077     -0.11511457
H       2.34564755      1.35773276      0.24984369
H      -1.92757527     -1.62378152     -0.29424905
