15
b3lypvtz=-214489.35082647
C      -1.76153047      1.61452770     -0.44312847
N      -1.00793515      0.68054591     -0.82789699
C      -0.33962630     -0.12789582      0.19242905
C      -0.82802775     -1.57743591      0.07260519
C       1.14201651     -0.04415090     -0.04589233
N       1.90743603      0.31579883      0.89656571
O       3.25579601      0.30781752      0.50019939
H      -1.93511856      1.85803246      0.61219436
H      -2.27562624      2.22365410     -1.18355025
H      -0.54068186      0.24546182      1.20410624
H      -0.32732602     -2.20692963      0.80828963
H      -1.90364993     -1.62649821      0.24427229
H      -0.62476962     -1.96897214     -0.92456260
H       1.52809065     -0.30150060     -1.03129076
H       3.71085268      0.60754488      1.29355955
