14
b3lypvtz=-229578.04130165
C       3.35802638      0.04424499      0.21317541
N       2.07695467     -0.46597775     -0.23956152
N       1.03930223      0.39022706     -0.11845558
C      -0.15331018     -0.08391296     -0.07106237
C      -1.28423119      0.81113891     -0.01517498
C      -2.55997269      0.43996872      0.04681129
F      -2.92868200     -0.86051348      0.06077614
H       3.55161521      0.99427302     -0.28152579
H       4.13617450     -0.66288024     -0.07288348
H       3.40323175      0.20268374      1.29733471
H       1.88174154     -1.42707957      0.02925512
H      -0.34167014     -1.16028939     -0.07932969
H      -1.07552619      1.87258441     -0.02237165
H      -3.40867287      1.10623655      0.09090638
