14
b3lypvtz=-203657.57645835
C      -1.25811647      2.34750202     -0.15424692
C      -0.71660669      1.35786453      0.25273025
C      -0.07652023      0.14274184      0.75406557
C       1.37520590      0.00258633      0.26269526
O       1.36120743     -0.18930022     -1.14514833
C      -0.88628070     -1.08823723      0.38649722
N      -1.17518230     -1.94401293      1.27070975
H      -1.73287464      3.22604558     -0.51338729
H      -0.04161184      0.17749668      1.84613751
H       1.82313804     -0.85570803      0.77498663
H       1.93037499      0.90464137      0.53770239
H       2.26604898     -0.19440349     -1.46807312
H      -1.16702913     -1.16681604     -0.66606784
H      -1.70175336     -2.72040041      0.87040120
