18
b3lypvtz=-181915.05103007
C      -1.51729090     -1.61254516      0.00707581
C      -0.36107726     -0.66725418     -0.00625175
C      -0.36107904      0.66725388     -0.00625451
C      -1.51729521      1.61254164      0.00706897
C       1.05123847      1.19312402     -0.03755373
N       1.88204262      0.00000312      0.17421901
C       1.05124168     -1.19312088     -0.03754888
H      -2.47640360     -1.09705049      0.01284961
H      -1.48048816     -2.26338130      0.88588983
H      -1.49630905     -2.27031055     -0.86750452
H      -1.49631432      2.27030413     -0.86751351
H      -2.47640654      1.09704449      0.01284356
H      -1.48049504      2.26338081      0.88588081
H       1.22373137      1.94084263      0.74714046
H       1.25149837      1.69983845     -0.99600052
H       2.70634131      0.00000300     -0.40682622
H       1.25150278     -1.69983865     -0.99599370
H       1.22373652     -1.94083596      0.74714828
