11
b3lypvtz=-212947.94731659
C       2.32817430     -0.63960053     -1.42399553
C       1.30089667     -0.74977489     -0.80681495
C       0.10944222     -0.98735699     -0.09409739
C      -0.70306809     -0.03722282      0.42361087
O      -1.83977017     -0.29587155      1.10276606
N      -0.35443580      1.31377343      0.25135209
N      -1.15450539      2.12604794      0.75715925
H       3.23156265     -0.51345269     -1.96595199
H      -0.16906719     -2.02783127      0.04445808
H      -1.97651548     -1.24818889      1.15840737
H      -0.77271372      3.05937825      0.55300612
