11
b3lypvtz=-262034.26193126
C      -1.22474873     -0.32038763      0.25914980
C       0.13783301      0.27817534      0.08851015
O       0.31353427      1.46935613     -0.06080418
C       1.35292585     -0.66753133      0.10671925
O       1.24837702     -1.85276008      0.25125552
O       2.51200855     -0.02620568     -0.05279564
O      -2.23949636      0.64271261      0.21982848
H      -1.36057953     -1.07748619     -0.52384431
H      -1.23216931     -0.87283106      1.20776401
H       2.31136474      0.92247207     -0.14643548
H      -1.81904951      1.50448581      0.09318389
