10
b3lypvtz=-274659.57059328
N      -1.54811331      0.74351821      0.83197984
C      -0.82804815      0.40326736     -0.14943205
O      -1.07445316      0.53844350     -1.47597750
C       0.48467096     -0.24021988      0.10207018
F       0.79263427     -0.40391753      1.38232027
N       1.24315455     -0.60117221     -0.84666260
O       2.41923814     -1.18041114     -0.39759627
H      -2.42664821      1.17532483      0.54994898
H      -1.93481634      0.95912269     -1.59232699
H       2.87238125     -1.39385584     -1.22042386
