15
b3lypvtz=-191197.11959285
C       3.09365194     -0.12660457     -0.00000027
C       1.78997605     -0.42342389     -0.00000073
C       0.75652633      0.58736488      0.00000417
C      -0.57919076      0.37382064      0.00000132
C      -1.59026646      1.47893901     -0.00000245
N      -1.00450305     -0.97320606     -0.00000892
N      -2.24555819     -1.12217396     -0.00001296
H       3.44251687      0.89943181      0.00000572
H       3.84981965     -0.89945853     -0.00000525
H       1.46625517     -1.45553213     -0.00000574
H       1.09693088      1.61792264      0.00000520
H      -1.09751669      2.44949274      0.00000660
H      -2.24266576      1.40901467     -0.87228951
H      -2.24267663      1.40900326      0.87227555
H      -2.41547635     -2.13614753     -0.00000772
