18
b3lypvtz=-181893.51660548
C       3.13990064      0.35000643      0.13610343
C       2.13606988     -0.34784165     -0.37920035
C       0.87692314     -0.72599289      0.34672672
C      -0.37737760     -0.21935422     -0.34164002
C      -0.85710296      1.19138513     -0.12346483
C      -1.63810111      0.03279707      0.43741771
N      -2.89326093     -0.28452833     -0.19867212
H       3.11855295      0.70314215      1.16092252
H       4.02084940      0.59221044     -0.44393524
H       2.20212324     -0.67867172     -1.41273409
H       0.91839302     -0.34530311      1.37060425
H       0.81966506     -1.81892378      0.42042994
H      -0.54422054     -0.61091451     -1.33812972
H      -0.30202535      1.81571366      0.56425137
H      -1.29467025      1.71114977     -0.96402791
H      -1.55960818     -0.11038869      1.51441099
H      -3.15202926     -1.24993824     -0.03135513
H      -3.64020315      0.29506448      0.16644049
