17
b3lypvtz=-191966.43572843
C       1.51435390     -0.12429461     -0.63562430
C       1.10751627      1.13697564      0.15367611
C      -0.30996418      0.80260450      0.60743821
N      -1.30686127      0.81245393     -0.49663774
C      -1.57191990     -0.64085249     -0.33758878
C      -0.36967565     -0.76327991      0.63053160
N       0.87115396     -1.26590033      0.04685010
H       2.59127695     -0.27759443     -0.69502280
H       1.13069110     -0.05655955     -1.65483566
H       1.14402681      2.04667469     -0.44628237
H       1.75592975      1.26916050      1.02521807
H      -0.61884256      1.32471196      1.51524519
H      -2.10551674      1.41243158     -0.34235539
H      -1.48624005     -1.21306643     -1.26333633
H      -2.52644919     -0.88001040      0.14120882
H      -0.58300589     -1.26286872      1.57252649
H       1.47518368     -1.60037293      0.78683477
