10
b3lypvtz=-308006.00367884
C      -1.20302873     -0.94764258      0.05122899
C      -0.41967213      0.11281851     -0.08028691
C       1.07283678      0.05816469      0.12846167
F       1.51565590     -1.15718872      0.45669935
F       1.45194200      0.91726290      1.10522646
F       1.72810044      0.45196241     -0.99017641
O      -0.90065764      1.34164564     -0.41568551
H      -2.26753396     -0.86147056     -0.10799806
H      -0.78817898     -1.90481334      0.31767107
H      -0.18946366      1.98926105     -0.46514065
