15
b3lypvtz=-214533.52819624
C      -1.93759212     -1.14832257     -0.00465909
C      -1.18336909     -0.07663769     -0.20201061
C      -1.59090591      1.35066048     -0.02258992
O       0.10551971     -0.23999703     -0.71096530
C       1.17247691     -0.08536291      0.15314645
N       1.16172637     -0.11088689      1.41833202
N       2.31083595      0.13121996     -0.58304604
H      -1.54852816     -2.14094523     -0.17937103
H      -2.96272312     -1.04731321      0.31987759
H      -0.91903527      1.86190730      0.66955352
H      -2.60722139      1.42069771      0.36019708
H      -1.53651224      1.87793133     -0.97762495
H       0.23253175     -0.27903714      1.78899012
H       2.28346032     -0.17464341     -1.54077345
H       3.16631329     -0.05302970     -0.08742438
