19
b3lypvtz=-195141.15522171
C       1.18699403      1.84185471      0.59332358
C       0.84580836      0.92656502     -0.30740503
C      -0.23747839     -0.12332419     -0.19331064
C      -1.16920537      0.10471177      1.00195462
C      -1.05229264     -0.14265788     -1.49920910
C       0.46557907     -1.49821029     -0.05196434
O       1.24119974     -1.62904001      1.12725596
H       0.66764483      1.94975512      1.53644381
H       1.99835513      2.53319529      0.40590329
H       1.41322854      0.88372480     -1.23499093
H      -1.64050387      1.08720601      0.95142401
H      -1.95980419     -0.64763733      1.00806233
H      -0.63321727      0.02317278      1.94634124
H      -1.57550532      0.80355294     -1.64375311
H      -1.79804589     -0.93989318     -1.47671883
H      -0.41078138     -0.30606902     -2.36773088
H      -0.29007935     -2.28407829     -0.00094077
H       1.07682106     -1.68302601     -0.94500450
H       1.87158291     -0.89960222      1.15021931
