12
b3lypvtz=-200558.73224173
N      -2.01379401     -0.04487361     -0.08965450
C      -0.62871022     -0.01443818     -0.03548770
C       0.14352294     -1.17793777      0.04538499
N       1.47108364     -1.15824084      0.03730977
C       2.05430563      0.03577637     -0.05195245
N       1.42577237      1.20736972     -0.13016248
C       0.09840495      1.17743741     -0.12150207
H      -2.45144450     -0.86555822      0.29764263
H      -2.48372782      0.80401946      0.18160968
H      -0.33519384     -2.15117640      0.11571891
H       3.13705187      0.05587092     -0.06108047
H      -0.41717102      2.13195113     -0.18782632
