13
b3lypvtz=-216142.42686986
C       1.41586540      0.76613987     -0.04684089
C       0.46774418     -0.04767557      0.83900308
C       0.19489451     -0.87868186     -0.43477207
O       1.18094288     -0.10498571     -1.18286965
C      -1.23969271     -0.54826459     -0.71492521
C      -1.66857913      0.28635408      0.23015359
O      -0.76081354      0.61071572      1.20094210
H       2.46704202      0.76503821      0.24989049
H       1.08191336      1.79066681     -0.22572936
H       0.88116956     -0.51498295      1.72786558
H       0.44241504     -1.94026791     -0.46658895
H      -1.82412061     -0.92522246     -1.53704430
H      -2.63878097      0.74116638      0.36091560
