13
b3lypvtz=-216163.96950855
C       0.14109440      1.30259968     -0.12534463
C      -1.12732419      0.53625015      0.14126857
C      -0.83391216     -0.90192755      0.26366629
O      -1.46178714     -0.37606107     -0.91458844
C       0.64081149     -1.14664955      0.08314952
C       1.22036739      0.22345899     -0.29981525
O       2.34939567      0.42330331     -0.65775235
H       0.41436558      1.94625702      0.71598391
H       0.08992344      1.92923520     -1.01626368
H      -1.96997551      1.00208234      0.63721168
H      -1.44493004     -1.57173903      0.85614580
H       1.11492780     -1.48736624      1.00837519
H       0.86704329     -1.87944326     -0.69203662
