14
b3lypvtz=-201303.44780965
C       1.67506065     -1.26238272      0.00000798
C       0.31519426     -0.66099288     -0.00000162
N      -0.81280532     -1.32692320     -0.00001947
N      -1.84425664     -0.41097220     -0.00001184
C      -1.30215151      0.77303856     -0.00004110
N       0.06220639      0.68694332     -0.00000831
C       1.01878843      1.77744290      0.00000414
H       2.24947623     -0.96969418     -0.88213776
H       2.24945452     -0.96972617      0.88217855
H       1.57075742     -2.34447071     -0.00001342
H      -1.83126627      1.71194292      0.00002739
H       1.65185544      1.74049262     -0.88685996
H       1.65182019      1.74050121      0.88689378
H       0.47815820      2.72093052     -0.00001136
