14
b3lypvtz=-226998.62144059
C       2.40786728     -0.74473208      0.10802130
N       0.97433887     -0.62467103     -0.07087406
C       0.32929009      0.56548092     -0.07991208
O       0.85368635      1.65570911      0.07570384
C      -1.16248183      0.46373918     -0.28362199
C      -2.01555702     -0.19808601      0.71131582
O      -1.72019612     -0.83170841     -0.53747033
H       2.88938860     -1.12426506     -0.79549398
H       2.80137754      0.24475582      0.32602932
H       2.64251883     -1.41360635      0.93770923
H       0.42150769     -1.43731002     -0.29354384
H      -1.57629982      1.27701844     -0.86863679
H      -1.55746998     -0.65451421      1.58212100
H      -3.04240347      0.12911270      0.83185157
