15
b3lypvtz=-191215.68928618
C       2.67407876      0.48164409      0.24425151
C       1.98293795     -0.60724998     -0.10131336
N       0.61078089     -0.82630257     -0.07961509
C      -0.43895486      0.09393387     -0.06030394
N      -0.35727856      1.35998955     -0.18408285
C      -1.75940798     -0.56414999      0.11572568
C      -2.91232788      0.09224279      0.07735703
H       3.75037889      0.45580173      0.16489020
H       2.23271887      1.38070481      0.64333597
H       2.52523192     -1.48270657     -0.43913923
H       0.33312393     -1.78671795     -0.18617165
H       0.59265059      1.66981615     -0.35454013
H      -1.75345667     -1.63496775      0.29298612
H      -3.85479808     -0.41909632      0.21657058
H      -2.92601778      1.16066112     -0.09103583
