15
b3lypvtz=-191207.24193562
C       1.48850279     -0.56571038      0.16936879
C       0.13847866     -0.91480091     -0.45333270
C       0.88701899      0.31903555     -0.88207799
N       0.11423802      1.47944999     -0.48527569
C      -0.89866911      1.05783981      0.49740177
C      -1.07158317     -0.43411130      0.26513567
N      -2.12069364     -1.05878104      0.60261080
H       2.31354195     -1.20485000     -0.11445324
H       1.51038710     -0.22927431      1.19745480
H       0.06378805     -1.79808233     -1.07132493
H       1.35381459      0.37666546     -1.85640618
H       0.70329479      2.22163006     -0.13062247
H      -1.84359026      1.58006921      0.35086648
H      -0.59223525      1.22094019      1.53878065
H      -2.04629349     -2.05001999      0.37187423
