16
b3lypvtz=-227779.33575238
C      -3.06792857     -0.45181193     -0.00000949
C      -1.84635505      0.43931713      0.00003372
O      -0.67756170     -0.41545758     -0.00000439
C       0.51901694      0.20046599      0.00000256
O       0.66337392      1.39744627      0.00003177
C       1.65580077     -0.81596048      0.00002972
N       2.99416496     -0.26014802     -0.00000754
H      -3.08710657     -1.08933149      0.88411500
H      -3.97062799      0.16090187      0.00002458
H      -3.08711059     -1.08923913     -0.88420048
H      -1.80804499      1.08169310      0.88023872
H      -1.80804403      1.08177893     -0.88010799
H       1.52226100     -1.46339308      0.86992958
H       1.52224769     -1.46349068     -0.86979398
H       3.11689442      0.34135824      0.80646289
H       3.11689079      0.34126686     -0.80654666
