18
b3lypvtz=-181893.47751792
C       3.11800172      0.56606343     -0.27080492
N       2.15374364     -0.43642105      0.15139664
C       0.82567727     -0.06541077      0.30470987
C      -0.24764734     -0.83418996      0.08925903
C      -1.64799200     -0.43707733      0.38089370
C      -2.11427293      0.98917037      0.26955451
C      -2.59098801     -0.03215609     -0.73033344
H       2.96487791      0.92504349     -1.29754322
H       4.12493957      0.15620566     -0.19589280
H       3.06185408      1.42699720      0.39705618
H       2.27500440     -1.32972753     -0.30259951
H       0.70135551      0.94304599      0.68649377
H      -0.10348274     -1.84343012     -0.29059046
H      -2.12503008     -1.00829445      1.17242377
H      -2.81819993      1.35587055      1.00379296
H      -1.40824280      1.73094136     -0.07644610
H      -2.18226168      0.02320635     -1.73010125
H      -3.61973259     -0.36227110     -0.67919775
