16
b3lypvtz=-181173.47924069
C       2.51998391     -0.21751277      0.57109632
C       1.61129566      0.32250725     -0.54452116
C       0.14863406      0.21171040     -0.25498348
C      -0.79081129      1.17429371      0.03946317
C      -2.03762175      0.52392899      0.25267165
C      -1.82969958     -0.82107485      0.08274368
N      -0.50230942     -0.99981250     -0.22252489
H      -0.07215403     -1.88707771     -0.41219823
H       2.34769112      0.31908918      1.50469332
H       2.33471235     -1.27655846      0.76072467
H       3.57235421     -0.10845169      0.30248761
H       1.84711133     -0.19484178     -1.48114403
H       1.83819311      1.37551974     -0.71739325
H      -0.59927572      2.23337748      0.09355280
H      -2.97674158      0.99017784      0.49849965
H      -2.50543737     -1.65585283      0.14829515
