9
b3lypvtz=-235567.49717934
C       1.89114772     -0.79440667     -0.21128950
N       2.78256403     -1.42667323     -0.57187033
C       0.81392377      0.05429281      0.31081501
O       1.00964949      0.85657133      1.18642134
C      -0.55930656     -0.17076388     -0.34985123
O      -0.68536911     -0.99609290     -1.22849992
N      -1.51345899      0.62808587      0.16196475
H      -1.28671671      1.27888646      0.89519896
H      -2.45243364      0.57010021     -0.19288907
