14
b3lypvtz=-224571.87467218
C      -3.51596486      0.28730391     -0.00057855
N      -2.27778058     -0.46083519     -0.00037203
C      -1.19245719      0.18460984      0.00033603
N       0.03048775     -0.44918423      0.00073882
C       1.24348086      0.19476295      0.00040285
N       2.33191142     -0.46490129     -0.00038226
O       3.43597569      0.41987470     -0.00033943
H      -3.37425077      1.37717168     -0.00014906
H      -4.10815772      0.01821388     -0.87819406
H      -4.10882044      0.01761352      0.87640627
H      -1.12264503      1.27841735      0.00076771
H       0.02503227     -1.45907592     -0.00008607
H       1.21711188      1.28137388      0.00097072
H       4.18305773     -0.18552609     -0.00105094
