16
b3lypvtz=-181077.03304258
C       1.04197492      0.46019484     -0.32011212
C       0.48342949     -0.89209335     -0.71810488
C       1.33611934     -1.86009645     -1.54577108
C       2.18873396     -2.34716038     -0.33455008
C       1.82698546     -3.78294177     -0.67594345
N       0.52150186     -3.08018732     -1.03050845
C       0.73192174     -2.11571080      0.17087450
H       0.44804994      0.90776637      0.47943324
H       1.02788489      1.15221383     -1.16465845
H       2.07258786      0.38669009      0.03237738
H      -0.54865130     -0.82454442     -1.07144401
H       1.64087156     -1.80760968     -2.59117681
H       3.11813008     -1.92541817      0.05542241
H       1.72661713     -4.49876947      0.14238064
H       2.31603715     -4.24861292     -1.53396558
H       0.32380593     -2.36462039      1.15064672
