15
b3lypvtz=-191219.67271005
C      -3.14486052     -0.45830740      0.10204624
N      -1.70182449     -0.46225432     -0.10607125
C      -1.09492669      0.85145560     -0.00712514
C       0.40111435      0.82548327     -0.02482085
C       1.14366363     -0.28093123      0.05732222
C       2.56636600     -0.25772295      0.03598407
N       3.71987157     -0.26646277      0.01808348
H      -3.36439633     -0.17579474      1.13316614
H      -3.53553467     -1.46302822     -0.05555064
H      -3.69113435      0.23151443     -0.55884435
H      -1.48644304     -0.86728308     -1.00944571
H      -1.41463370      1.30657000      0.93866999
H      -1.43736201      1.55229427     -0.78931835
H       0.88991978      1.78977831     -0.10749143
H       0.67236347     -1.25010718      0.15999658
