16
b3lypvtz=-204448.3392174
C       1.07932152      1.46302366     -0.52697078
C       0.23203494      0.35875074      0.05927393
C       0.92247758     -0.93678693      0.27648307
O       2.08598352     -1.12857803      0.00716728
C      -0.83981956      0.70809172      1.08948307
C      -1.25939138      0.32026056     -0.28399050
N      -1.91906318     -0.94882195     -0.44750499
H       1.48768925      1.16738554     -1.49406550
H       1.92288625      1.69165340      0.12522336
H       0.49429932      2.37339668     -0.66237869
H       0.29954325     -1.73631451      0.71447357
H      -0.90427091      1.74397760      1.39159569
H      -1.02211671     -0.01385266      1.87432909
H      -1.55750887      1.13894031     -0.93667230
H      -2.89660061     -0.88137415     -0.19092315
H      -1.87462639     -1.26762398     -1.40778714
