14
b3lypvtz=-203632.37243993
C       0.79210958     -1.26786168      0.34219345
C       1.13611706      0.01905532     -0.41739805
O       0.85618283      1.19872116      0.38147656
C      -0.56583329      1.09358887      0.10759381
C      -1.22367744      0.00453525      0.96363482
N      -0.68233522     -1.08762571      0.07325775
C      -0.31249647     -0.00286020     -0.94788403
H       1.14187123     -2.16287612     -0.17612066
H       1.07637728     -1.31796785      1.39367958
H       2.05985720      0.11400572     -0.98595435
H      -1.03325150      2.06709580     -0.03173890
H      -2.31285195      0.01807121      0.88848865
H      -0.92870619     -0.05298160      2.01178757
H      -0.66536314     -0.06090019     -1.97271620
