14
b3lypvtz=-203666.52559686
C      -2.40137943      0.51029881      0.25792912
C      -1.36716901     -0.27079444     -0.01334117
N      -0.24254511      0.20212337     -0.74361476
C       0.53000602     -0.78676560     -1.47108535
C       1.07997466     -0.20671381     -0.21114924
C       2.12931718      0.84321269     -0.26120017
O       3.07002037      0.88848733      0.48958873
H      -3.24649465      0.13246154      0.81536512
H      -2.42187641      1.53982954     -0.07190410
H      -1.34469415     -1.31169745      0.31318456
H       0.21733850     -1.82486272     -1.42332313
H       0.91157678     -0.46361975     -2.43182787
H       1.10649443     -0.84853318      0.66226556
H       1.97933083      1.59657368     -1.06068730
