13
b3lypvtz=-242068.78245835
C      -1.67838190      1.43345175     -0.00000173
C      -1.17843958      0.20845281     -0.00000068
F      -1.99246367     -0.86486621     -0.00000167
C       0.26561834     -0.13970543      0.00000087
O       0.46146950     -1.48546396     -0.00000144
N       1.14998760      0.76481655      0.00000381
C       2.54946767      0.38244814      0.00000444
H      -1.00629987      2.27571360     -0.00000027
H      -2.74631800      1.59031892     -0.00000200
H       1.40821874     -1.66785777     -0.00000215
H       2.82342453     -0.20248122      0.88819955
H       3.16563682      1.27896416     -0.00004617
H       2.82340981     -0.20257032     -0.88813756
