16
b3lypvtz=-227764.68978793806
C      -1.29287694     -0.74713167     -0.32405163
C      -0.01076035     -0.03502360      0.07324775
C       1.22336657     -0.91194848     -0.05567881
C      -0.12235973      0.60293036      1.52845055
O      -0.27518557     -0.22045064      2.42728778
O      -0.03481671      1.85604864      1.52387084
N       0.16688047      1.18862617     -0.83344603
H      -2.15145152     -0.07245607     -0.29685385
H      -1.23115157     -1.20471025     -1.31630297
H      -1.47524864     -1.52944247      0.40966304
H       1.14320645     -1.70306993      0.68675578
H       2.13624962     -0.35374529      0.16392709
H       1.31486070     -1.36867860     -1.04605320
H       0.96591059      1.71228799     -0.47055026
H      -0.61792667      1.81516509     -0.64519408
H       0.26130330      0.97159874     -1.82507203
