13
b3lypvtz=-218757.37759745
C       0.81134957     -1.65592261     -0.39708335
C       0.84385915     -0.37764194     -0.04022104
F       2.02054357      0.13190972      0.40277469
C      -0.22625012      0.62727930     -0.10556733
C       0.06761607      1.93283656     -0.16954262
C      -1.65772230      0.23156867     -0.07293688
N      -2.19199527     -0.83819999      0.34903268
H       1.70093751     -2.26304288     -0.32096148
H      -0.08458254     -2.09662455     -0.80219160
H       1.08552072      2.29203229     -0.14875340
H      -0.72164225      2.66996116     -0.23340767
H      -2.33008384      1.01440776     -0.42979276
H      -1.49118828     -1.49662549      0.69062075
