14
b3lypvtz=-227011.2595818
C      -2.16064026     -0.92320077     -0.17397071
N      -1.52788233      0.37693749     -0.26979448
C      -0.36866201      0.59876916      0.13442873
C       0.31635962      1.92273689      0.06856563
O       0.39402628     -0.40218962      0.82439135
C       1.48294956     -0.92332218      0.22236298
O       1.87197987     -0.67069064     -0.88022483
H      -3.10205655     -0.80918192      0.36571373
H      -1.55861727     -1.68983853      0.31725444
H      -2.41239081     -1.25739422     -1.18176524
H       0.59164726      2.25297719      1.07224629
H       1.22938460      1.84734313     -0.52226467
H      -0.35193095      2.64939905     -0.38412899
H       1.95765598     -1.63277204      0.91213378
