18
b3lypvtz=-205212.28627524
C      -0.96264714      1.61488334      0.02302414
C      -0.64519716      0.15929386      0.23045316
C      -1.56909739     -0.78969535      0.09049721
O      -2.86607480     -0.51701455     -0.27942525
C       0.76594678     -0.21450120      0.60415741
C       1.80733043      0.03337392     -0.50612471
N       3.18988527     -0.30005196     -0.16337484
H      -0.46935348      2.01411687     -0.86770709
H      -2.03248037      1.77620160     -0.09057460
H      -0.61178711      2.20999074      0.87151783
H      -1.33870763     -1.83668157      0.25631636
H      -3.38727855     -1.32076539     -0.22098097
H       1.07238206      0.35611260      1.49035329
H       0.80914881     -1.27112916      0.88586782
H       1.52769966     -0.54515695     -1.39000868
H       1.78569688      1.08272720     -0.80731363
H       3.26280660     -1.27443061      0.10749618
H       3.49869114      0.24410361      0.63443138
