16
b3lypvtz=-232773.16524439
C      -0.78475947     -1.47696379      0.77973964
C      -0.76728109     -0.38490402     -0.31049863
C      -2.15888189      0.18896682     -0.56512503
C       0.21260489      0.70058888      0.09571501
O      -0.11923828      1.78695901      0.51091811
C       1.70972656      0.41388234      0.00721831
F       2.00374861     -0.81839174     -0.56463395
H       0.20264228     -1.90898084      0.93797054
H      -1.14455489     -1.06841950      1.72581075
H      -1.45847659     -2.28138120      0.48287073
H      -0.37737134     -0.84252189     -1.22397430
H      -2.84301958     -0.60532072     -0.86684585
H      -2.55418293      0.66309590      0.33294205
H      -2.14075245      0.94269253     -1.35263291
H       2.17578063      1.19596276     -0.59449286
H       2.13634757      0.44161949      1.01201138
