11
b3lypvtz=-189681.90672826
C      -1.58331319     -0.97410237     -0.50544600
C      -0.74359180      0.07388239     -0.56743160
N      -1.10601185      1.37315138     -0.92724833
C       0.64789853     -0.11596004     -0.31797088
C       1.82723483     -0.25050875     -0.09467369
C       3.15806832     -0.41467778      0.15707794
N       4.28705510     -0.55001923      0.37191966
H      -2.64339466     -0.85329703     -0.68222026
H      -1.21167291     -1.96321238     -0.29502746
H      -2.09263445      1.56985765     -0.86101364
H      -0.53953792      2.10488618     -0.52846575
