19
b3lypvtz=-192730.58878509
C       2.49378241      0.33710239      0.57115243
C       1.37225712      0.35174407     -0.44755552
C       0.61793313     -0.96107982     -0.76699676
C      -0.68444409     -0.13220268     -0.66438132
N       0.08715723      0.93529043      0.02793238
C      -1.85335300     -0.68394350      0.13824028
N      -2.90819878      0.28162660      0.44803466
H       2.81893107      1.35269985      0.80850742
H       3.35901064     -0.21058269      0.18939975
H       2.16121958     -0.13485677      1.49663144
H       1.72222520      0.82224882     -1.37515565
H       0.70496777     -1.69502692      0.03529919
H       0.83405838     -1.44090302     -1.71867597
H      -1.03728019      0.17728003     -1.65812171
H      -0.09649542      1.88094641     -0.28425155
H      -1.47127679     -1.07408026      1.08472015
H      -2.29876907     -1.52645810     -0.39987272
H      -2.51013320      1.06225967      0.95872575
H      -3.31159199      0.65793550     -0.40292222
