12
b3lypvtz=-226200.49942614
C       2.07995813     -0.19752025     -1.26816911
C       1.29072612     -0.26001708     -0.37006430
C       0.28876174     -0.35930989      0.69233760
O       0.93820876     -0.42979387      1.91881174
O      -0.57358179      0.79413471      0.72625923
C      -1.56952166      0.90488935     -0.19779879
N      -1.82042573      0.22582799     -1.22727498
H       2.78742230     -0.13308498     -2.05748155
H      -0.34723493     -1.23690916      0.51895284
H       0.27125384     -0.54394438      2.60592675
H      -2.20156960      1.74416947      0.07931260
H      -1.14389718     -0.50844190     -1.42081205
