17
b3lypvtz=-191951.37303494
C       3.29163017      0.31376328      0.08156044
N       2.10106203     -0.46619774     -0.21281060
N       0.95865970      0.04526763      0.34739466
C      -0.16059211     -0.20245841     -0.20536989
C      -1.42864282      0.24739966      0.39033241
C      -2.66531079     -0.62083016      0.28033677
C      -2.58173568      0.65302655     -0.50342670
H       4.15949370     -0.21409614     -0.31407733
H       3.26989932      1.32667865     -0.33993351
H       3.39875235      0.39578910      1.16189386
H       2.00450206     -0.68590948     -1.20190377
H      -0.22033211     -0.77322428     -1.14222450
H      -1.30332078      0.80290507      1.30945306
H      -3.32490509     -0.66161825      1.13576638
H      -2.57420773     -1.55509401     -0.25729799
H      -2.43485374      0.58236982     -1.57300474
H      -3.18405049      1.49465871     -0.19134055
