13
b3lypvtz=-213725.22121984375
C       1.98485221      0.37749853     -0.10620181
C       0.55476713      0.05849156     -0.44320290
C      -0.36010482     -0.57975555      0.50750334
O       0.21483722     -1.32398330     -0.60240828
C      -1.81580417     -0.35929422      0.55684316
N      -2.41113198      0.41749950     -0.29455518
N      -2.91804717      1.10491179     -1.03766119
H       2.36181678     -0.29680024      0.66245309
H       2.07624038      1.40498149      0.25205245
H       2.61472679      0.27269787     -0.99150977
H       0.11167777      0.69943521     -1.20361133
H       0.04874353     -0.88150792      1.46666692
H      -2.46257366     -0.89417472      1.23363152
