16
b3lypvtz=-204457.13768461
C       2.17164891     -0.42424441     -0.39366542
C       1.06635859      0.13050130      0.11291732
N       0.77193659      1.49444860      0.02433336
C      -0.04319589     -0.68779578      0.72158481
C      -1.27731557     -0.81678405     -0.19151812
C      -2.06000547      0.45789962     -0.39095138
O      -2.59630862      0.77951316     -1.41850591
H       2.30461390     -1.49542667     -0.38923567
H       2.95270369      0.17226300     -0.84723303
H       1.52123996      2.07088899     -0.32819168
H       0.35259059      1.89787861      0.84899520
H      -0.34847388     -0.24327779      1.67674527
H       0.33349376     -1.68291811      0.95158419
H      -1.97575069     -1.52451322      0.27255949
H      -1.00942643     -1.21823958     -1.16880940
H      -2.16390944      1.08970634      0.51939096
