12
b3lypvtz=-226235.58925391
C       3.20731777      0.16791792      0.00000096
C       1.90130845      0.36448682     -0.00005644
O       1.05074632     -0.73519618     -0.00005655
C      -0.26885961     -0.55656816     -0.00008441
N      -0.83284942      0.58579756     -0.00000008
C      -2.24546663      0.57737973      0.00003246
O      -2.96415415     -0.39149378     -0.00000652
H       3.63357243     -0.82520669      0.00001165
H       3.87304926      1.01726872      0.00003107
H       1.40106771      1.31980929     -0.00010925
H      -0.79080684     -1.51057770     -0.00000024
H      -2.65057129      1.59924747      0.00008837
