11
b3lypvtz=-241316.25823783
C      -2.11686223      0.12054359      0.61733640
C      -1.06826192     -0.08604077     -0.17182642
C       0.22726726      0.59608732      0.08301071
O       0.41246250      1.42751937      0.93809121
N       1.23525210      0.25789955     -0.85227648
C       2.18620811     -0.50923842     -0.64190982
F       2.36977481     -1.20027961      0.49865486
H      -2.04488998      0.80254187      1.45463090
H      -3.06043087     -0.37965400      0.44780367
H      -1.11449030     -0.76065428     -1.01708453
H       2.97407053     -0.71882462     -1.35643051
