14
b3lypvtz=-224573.40325388
C       2.85147066      0.41209714      0.38572181
O       2.12269922     -0.70430867     -0.14431153
C       0.81747426     -0.52382460     -0.36487511
N       0.22372310      0.57356494     -0.12692103
N      -1.15753568      0.58229907     -0.37582765
C      -2.03090128     -0.29523499      0.24769526
N      -3.29770078     -0.22734234      0.30822209
H       3.86906867      0.05757872      0.51963400
H       2.42375317      0.72947379      1.33646956
H       2.82668380      1.25084144     -0.30943847
H       0.35214688     -1.41948426     -0.76925548
H      -1.48918563      1.52908819     -0.47581791
H      -1.52364764     -1.13955949      0.71264572
H      -3.66320574      0.59562606     -0.17406425
