13
b3lypvtz=-239689.01848514
C      -1.54515468     -0.79966848      0.82662188
C      -1.06883104      0.43189759      0.10741070
N      -1.89562238      1.22768774     -0.43229628
N       0.32062884      0.68211141      0.17255791
C       1.17937368      0.03834880     -0.47060253
N       2.51665016      0.28166890     -0.49645114
F       0.88098056     -0.99165455     -1.30676078
H      -2.62947567     -0.85286143      0.78088539
H      -1.11625491     -1.69724131      0.37679036
H      -1.22410803     -0.77199422      1.87001846
H      -1.40538166      2.02177097     -0.84489193
H       2.86892289      0.89303342      0.21949120
H       3.11827224     -0.46309884     -0.80277325
