13
b3lypvtz=-213756.16142159
C      -1.60932193     -0.01908722     -0.10525957
C      -0.90186673     -1.14433911     -0.17184463
N       0.53030094     -1.16125708     -0.09751186
C       1.10744625      0.12511525      0.03998048
C       0.40554658      1.25507049      0.05671483
N      -1.01943674      1.25270519     -0.01549060
O       2.47225691      0.11413753      0.08965858
H      -2.68594617     -0.03517752     -0.20451316
H      -1.37260238     -2.09935216     -0.35081347
H       0.86987078     -1.79548872      0.62074159
H       0.89843425      2.21341132      0.00859487
H      -1.47429969      1.87283158      0.64123569
H       2.77961792     -0.57856955     -0.51149272
