15
b3lypvtz=-214521.16746443
N      -1.00929781      1.05902350     -0.81685110
C      -1.08156147      0.01749052     -0.08885426
O      -2.18380539     -0.41018681      0.60022248
C       0.06095346     -0.87460676      0.14919715
C       1.19387562     -0.93752421     -0.86022496
C       1.46748619     -0.25762156      0.42391723
N       1.73430766      1.14438427      0.46491824
H      -1.87925602      1.58656069     -0.85170732
H      -2.91251405      0.20258282      0.44310466
H      -0.18564820     -1.77738477      0.68820113
H       1.63279859     -1.90710549     -1.05065286
H       1.07263832     -0.30690400     -1.73072124
H       2.03607860     -0.81459247      1.15767413
H       1.55218490      1.51514877      1.39060387
H       1.12219459      1.63436750     -0.18066415
