12
b3lypvtz=-223822.5245514613
C      -1.00170995     -0.14199736     -0.71614628
C       0.09880655     -1.11811599     -0.30007725
O      -0.13729379     -2.30999323     -0.20276929
C       1.44393353     -0.62737917     -0.04557684
N       1.82581553      0.61422963     -0.20822053
N       2.19820862      1.66578521     -0.34333896
N      -0.98264287      1.09107467      0.06784752
H      -0.82701268      0.11694326     -1.76504043
H      -1.93498863     -0.71153752     -0.67388887
H       2.22501367     -1.31801657      0.23094791
H      -1.55049121      1.80612975     -0.36751627
H      -1.35763875      0.93287732      0.99519137
