9
b3lypvtz=-212253.54847034
N      -2.86075171     -0.01462644      0.00000063
C      -1.71048317      0.03888491     -0.00000160
C      -0.29338861      0.10264664     -0.00000619
N       0.45640449      1.15883691      0.00002192
C       1.74452123      0.66425396      0.00000735
C       1.69954619     -0.68955344      0.00000056
O       0.39347274     -1.07131718     -0.00000382
H       2.60211369      1.31371176     -0.00000495
H       2.43310316     -1.47432913     -0.00000090
