19
b3lypvtz=-192731.73946176
C      -1.03410482     -1.29875438     -0.79411026
C      -0.47640235     -0.16884227      0.04592750
C       0.52970532      0.77974581     -0.57680147
C       0.98837873     -0.24353128      0.43185312
N       1.41081306      0.22488521      1.72951184
N       0.92397427      0.60096121     -1.95316936
C      -1.46499207      0.41483028      1.03348145
H      -0.30870658     -1.65320718     -1.52320049
H      -1.33012393     -2.13782141     -0.15873929
H      -1.92383153     -0.97321917     -1.34082167
H       0.48506982      1.79415014     -0.18413596
H       1.52056831     -1.08572112     -0.00705773
H       2.37907754      0.52263642      1.70913385
H       1.33758263     -0.50985513      2.42323739
H       0.29122440      1.08543447     -2.57877783
H       1.85134566      0.97537333     -2.11558960
H      -1.00834678      1.18533942      1.65090249
H      -1.85139406     -0.36100333      1.70068843
H      -2.31983761      0.84859897      0.50766755
