14
b3lypvtz=-226982.48681032
N      -2.69877680      0.32289192     -0.72455185
C      -1.63987795     -0.22404677      0.00600524
C      -0.41927923     -0.48770528     -0.45824679
O       0.55432222     -1.02904764      0.36308711
C       1.82956441     -0.43526492      0.21636856
C       1.92792769      0.93048044      0.87407366
O       2.87109869      1.66372734      0.73547838
H      -3.60483744     -0.03377542     -0.46080013
H      -2.58256005      0.28594432     -1.72679745
H      -1.84618891     -0.39084335      1.05591430
H      -0.13238965     -0.34804419     -1.49771045
H       2.54662532     -1.09649901      0.70931332
H       2.12494567     -0.35039406     -0.83595531
H       1.06932602      1.19237662      1.52492141
