13
b3lypvtz=-216139.91133498
C       1.57655020      0.86104003      0.40846585
C       2.18537843      0.88946241     -0.99146081
O       3.33760674      0.64033328     -1.21506500
C       0.22564263      0.31975962      0.42130271
C      -0.88826666     -0.13093390      0.38158133
C      -2.23106363     -0.71067595      0.35765706
O      -2.35104898     -1.84090237     -0.49965845
H       1.56071906      1.89991923      0.76274731
H       2.25115187      0.30967327      1.06558764
H       1.48304820      1.17366776     -1.79911812
H      -2.94549906      0.02304999     -0.01881168
H      -2.53305226     -0.95698847      1.38294412
H      -1.67116656     -2.47740489     -0.25617194
