17
b3lypvtz=-194355.91271998
C      -2.32415041     -1.07778989      0.39463595
C      -1.92288462     -0.15993366     -0.47835465
C      -0.57070186      0.43774895     -0.58605877
C      -0.17183922      1.64324330      0.26453796
C       0.48704701      0.32595223      0.47783574
O       1.82503192      0.23229193      0.09089476
C       2.22609477     -1.09448497     -0.20687140
H      -1.65692066     -1.50672770      1.13165236
H      -3.34508886     -1.43531794      0.39987154
H      -2.64568527      0.21991616     -1.19626277
H      -0.17727539      0.48622911     -1.59556544
H       0.41832912      2.41315186     -0.21224863
H      -0.87293089      1.98651651      1.01244072
H       0.24733495     -0.22360736      1.38439681
H       2.12607859     -1.74801009      0.66772925
H       3.27363122     -1.05318144     -0.49925468
H       1.63764060     -1.51750999     -1.02817476
