15
b3lypvtz=-216935.80973196
C      -2.67452439     -0.10654294      0.00003299
O      -1.37792447     -0.72512524     -0.00001749
C      -0.32643026      0.12206412     -0.00007482
O      -0.44121505      1.32523870     -0.00006514
C       0.95806486     -0.61695929     -0.00004551
C       2.12474730      0.00357579      0.74407628
C       2.12481728      0.00359001     -0.74404242
H      -2.80297475      0.51337195      0.88601096
H      -3.38897520     -0.92455188      0.00008433
H      -2.80306535      0.51333724     -0.88595611
H       0.87297600     -1.69286477     -0.00005897
H       1.92604407      0.94046925      1.24387175
H       2.78317262     -0.67516093      1.26700938
H       2.78329172     -0.67513715     -1.26692619
H       1.92616162      0.94049312     -1.24383906
