13
b3lypvtz=-211320.76431585
C      -1.95419701     -0.07900067     -0.47191254
N      -0.66137585     -0.53627879     -0.92883306
C       0.40534434     -0.35618043     -0.27195646
C       0.57148420      0.32261410      1.05762884
N       0.16002562      1.48011023      1.36848827
N       1.58320151     -0.92639704     -0.88829917
N       2.62654069     -0.62804900     -0.28406817
H      -2.00006360      0.25105114      0.56886373
H      -2.66908763     -0.88741268     -0.63132602
H      -2.27546498      0.74339072     -1.11680931
H       1.09553673     -0.25336236      1.81840769
H      -0.28359965      1.94330651      0.57318201
H       3.40175562     -1.07379172     -0.79336581
