18
b3lypvtz=-181892.07535427
C      -2.51803893      0.21361544     -0.09163449
C      -1.14886350     -0.00369962     -0.73396467
C      -0.00106168      0.36623630      0.19418457
C       1.42094507      0.01967978     -0.21551345
C       2.13732950      0.16425360     -1.31574395
C       1.63587624     -0.64037970      1.12972387
N       0.16980474     -0.53075724      1.38156985
H      -3.32333161     -0.07217727     -0.76981328
H      -2.61696544     -0.38659651      0.81433460
H      -2.66850798      1.26180557      0.17887938
H      -1.06372530      0.59203264     -1.64806103
H      -1.03258572     -1.05069701     -1.02212643
H      -0.08602473      1.42570099      0.47533132
H       1.73955380      0.66603768     -2.18908062
H       3.14984353     -0.21372197     -1.38634933
H       2.25971736     -0.04307134      1.80489668
H       2.01247243     -1.66576091      1.12614182
H      -0.06643778     -0.10250042      2.26722514
