14
b3lypvtz=-203693.72112327
O      -2.64685562     -0.35735553      0.01409712
C      -1.79639651      0.50518376     -0.01909965
C      -0.35971671      0.24176164     -0.00555915
C       0.58944767      1.18209205     -0.00037275
C       1.95272508      0.56877387      0.04359806
N       1.68534737     -0.86008796     -0.17803771
C       0.25180055     -1.13286586      0.03613478
H      -2.07479451      1.57780710     -0.06120827
H       0.41556884      2.24966586     -0.01276331
H       2.61212206      0.97962655     -0.72980497
H       2.43446410      0.78944531      1.00984992
H       2.28035624     -1.45656947      0.37577433
H      -0.15417232     -1.78169527     -0.74411912
H       0.03152177     -1.61804003      0.99699072
