13
b3lypvtz=-213745.36540975
N       2.46101433     -0.82892355     -0.02476541
C       1.43054239     -0.31759511     -0.02880499
C       0.10933451      0.30642892     -0.00030745
N       0.26161011      1.74824635     -0.06188778
C      -0.90781939     -0.25233193     -1.03375215
O      -1.78442567     -0.72566130      0.00701166
C      -0.86793535     -0.33087674      1.04485449
H      -0.64034230      2.20278196      0.01772251
H       0.85699736      2.09257326      0.68207085
H      -0.53972244     -1.06077541     -1.66668586
H      -1.36546638      0.52513024     -1.64909848
H      -1.30559600      0.39401819      1.73576724
H      -0.47705116     -1.18767188      1.59718038
