15
b3lypvtz=-216943.61012026
C      -2.25522055     -0.46578802      0.65863495
C      -1.52883059      0.10825091     -0.57106814
C      -0.15424718      0.61167732     -0.20844566
O       0.09775553      1.77210720      0.02343826
C       0.98578930     -0.43830986     -0.10996585
C       2.32502706      0.06934858      0.34631525
O       0.76470871     -1.59060251     -0.40264201
H      -3.25863345     -0.78817739      0.38080649
H      -2.34711885      0.28578894      1.44352998
H      -1.72624539     -1.32873128      1.06182465
H      -1.43923893     -0.66814293     -1.33101043
H      -2.08523371      0.95197552     -0.97808393
H       2.67675672      0.85350182     -0.32641707
H       3.03536685     -0.75240083      0.37735246
H       2.23471050      0.53386452      1.32997304
