9
b3lypvtz=-258846.046033238
C       0.61827707      0.20054499      0.10449835
N       1.34027078     -0.83872243     -0.19205348
N       1.96871989     -1.74652615     -0.45045968
C      -0.77511208      0.09311633      0.44924073
O      -1.43048350      1.08111851      0.72301539
O      -1.26433735     -1.16576736      0.43893998
O       1.22250177      1.43061701      0.08214117
H      -2.19845613     -1.10575714      0.68404061
H       0.51861955      2.05137624      0.32827094
