15
b3lypvtz=-214502.65759157
N       2.58549262     -0.26094493      0.68269181
C       1.69414950      0.61396227      0.48435901
C       0.42407872      0.42563819     -0.29564557
N       0.26350226     -0.89782270     -0.93346686
C      -1.16638396     -0.95393997     -0.53648365
C      -0.90345656      0.15335866      0.49478070
O      -1.88772055      1.15683834      0.52035003
H       2.30365580     -1.12537623      0.20688964
H       1.83098620      1.60386886      0.92972102
H       0.25931009      1.27839088     -0.96540787
H       0.44144336     -0.92501944     -1.92876001
H      -1.49994444     -1.92418237     -0.16765516
H      -1.86180562     -0.59312115     -1.29961983
H      -0.70078507     -0.23957520      1.49326260
H      -1.78252235      1.68802481      1.31498412
