16
b3lypvtz=-227750.88021832
N      -1.94905173      0.41852170     -0.32581012
C      -0.54716595      0.07783794     -0.51540584
C      -0.30727592     -1.43257878     -0.52262808
O       1.05881294     -1.63691381     -0.14622699
C       1.64070246     -0.40251402      0.28045222
C       0.47568089      0.54310419      0.53744519
O       0.90181433      1.89025594      0.40780321
H      -2.11337857      1.40799784     -0.46244666
H      -2.26566204      0.17499929      0.60632125
H      -0.23135742      0.50382462     -1.47141117
H      -0.48518056     -1.88131362     -1.50075376
H      -0.96663513     -1.92794229      0.20086984
H       2.28218311      0.01832479     -0.50234074
H       2.25134079     -0.58966750      1.16408129
H       0.05943344      0.36745045      1.53899951
H       0.19563936      2.46861324      0.71105085
