15
b3lypvtz=-193620.41913797
C       2.66048556     -0.36941104     -0.01598780
C       1.72107565      0.57565205      0.02504979
C       0.29483256      0.32195189      0.00414923
C      -0.71609292      1.19932890      0.03733291
C      -2.02425449      0.46147575     -0.07071987
C      -1.55146055     -0.99897911      0.08669546
O      -0.11170961     -0.98659633     -0.07859293
H       3.71081090     -0.11375520     -0.00148076
H       2.39978192     -1.41731125     -0.06588180
H       1.99806164      1.62206696      0.07383607
H      -0.60597962      2.27030607      0.08052627
H      -2.50945120      0.63819410     -1.03668627
H      -2.74465158      0.73713129      0.70185369
H      -1.96454419     -1.68043919     -0.65428313
H      -1.76775607     -1.38654291      1.08482314
