18
b3lypvtz=-205215.68779702
C       1.79335599      0.54298174      0.58116030
C       1.00724958     -0.04845395     -0.58881495
C      -0.25234871      0.76874311     -0.95185648
C      -1.35478213      0.20854164     -0.04592811
O      -1.49580561      1.07731706      1.08458220
C      -0.83590884     -1.20560731      0.34849825
N       0.49163336     -1.39419516     -0.25865387
H       2.61831938     -0.11672029      0.85046915
H       2.20122838      1.52010165      0.31443544
H       1.15699776      0.67875437      1.45569610
H       1.67695349     -0.14048320     -1.44596313
H      -0.51362897      0.58963365     -1.99693610
H      -0.14722892      1.84401954     -0.81088119
H      -2.31209496      0.15060069     -0.57311558
H      -2.15352506      0.70285934      1.67860958
H      -0.76378136     -1.24904670      1.43907986
H      -1.51028351     -2.00263854      0.03300027
H       0.39365014     -1.92650762     -1.11348174
