17
b3lypvtz=-215287.1283194
C       1.51636365     -1.44875707     -0.21954634
C       1.60436257     -0.01626409      0.30231406
N       2.04879867      0.86784082     -0.77886029
C       0.28561729      0.43398567      0.96889657
N      -0.79734841      0.49050691      0.00646404
C      -1.87552827     -0.08383396      0.27671003
O      -2.91220653     -0.05666249     -0.59868287
H       1.23557947     -2.14349653      0.57515301
H       2.47756385     -1.75627140     -0.62908604
H       0.77042414     -1.52441460     -1.01296815
H       2.37268253      0.01856179      1.08090047
H       1.29109977      0.97235426     -1.44653992
H       2.23255188      1.79724295     -0.41642998
H       0.43689323      1.44305903      1.36544226
H       0.05604396     -0.22355818      1.82220987
H      -2.07190597     -0.63521662      1.20516382
H      -3.65099781     -0.55234650     -0.23227953
