10
b3lypvtz=-223007.97517984203
C       0.29659954     -0.81969385     -0.37878481
C      -1.03142321     -0.51442668     -0.07414940
N      -1.56195461      0.65225267      0.31845521
N      -2.26921541      1.45586558      0.64583297
O       0.52133096      1.78672114      0.26774128
N       1.58362320      1.23265258     -0.05773614
C       1.46367092     -0.09160428     -0.38465038
H       0.40403693     -1.85852739     -0.66918563
H      -1.79678082     -1.27558769     -0.14541004
H       2.39011250     -0.56765208     -0.66810848
