13
b3lypvtz=-216143.81600641
O       3.32629849      0.22255948     -0.50379256
C       2.17278745     -0.14159686     -0.46002282
C       1.07795236      0.65220275      0.10046418
C      -0.17647252      0.20843969      0.12685189
C      -0.91564836     -1.03649882     -0.30492624
O      -2.16172840     -0.47391262      0.17694967
C      -1.49756040      0.74058904      0.60948324
H       1.88021321     -1.13482869     -0.85934986
H       1.33595100      1.62760009      0.49740540
H      -0.64962292     -1.95767668      0.22104679
H      -0.94045467     -1.22980180     -1.38100453
H      -1.58010562      0.89652708      1.68927343
H      -1.87160963      1.62639733      0.08752139
