13
b3lypvtz=-234661.23007548
C       2.09594230      0.84476419      0.65377548
N       1.27139772     -0.30277970      0.35178277
N       0.08593041     -0.14148680     -0.18852430
N      -0.60817445     -1.18915455     -0.23198067
C      -1.88969105     -1.00685198     -0.85804139
N      -2.11691128      0.18299256     -1.48417507
O      -2.68839970     -1.91620895     -0.82798857
H       3.13861468      0.62302509      0.42693248
H       2.01856348      1.14218181      1.70328689
H       1.76813746      1.67214062      0.02951647
H       1.46597187     -1.21915441      0.74508041
H      -1.48806918      0.95310004     -1.34502021
H      -3.05331226      0.35723208     -1.80124428
