14
b3lypvtz=-222172.11111862
C      -2.34783597     -0.24334575      0.62948048
N      -0.95206686      0.08520706      0.82289597
C      -0.17020795     -0.06283695     -0.17232422
N      -0.49631490     -0.54351531     -1.42059462
N       1.19556286      0.26339970      0.07119430
N       1.91080822      0.22920783     -0.95104421
N       3.20347555      0.47376926     -0.70829023
H      -2.49075910     -1.28838661      0.32289143
H      -2.82851984      0.38895484     -0.13195116
H      -2.88758935     -0.09128318      1.56264026
H      -1.45889769     -0.48627495     -1.70201186
H       0.18830876     -0.39904512     -2.14424755
H       3.41776288      0.89713580      0.18918374
H       3.71637339      0.77731337     -1.51792234
