12
b3lypvtz=-202933.32201654
C      -1.79765475      1.27697635     -1.07706031
C      -1.09182718      0.23976472     -0.61526216
C       0.17215394      0.37849831      0.06750387
C       0.89905722     -0.65148738      0.53956511
C       2.14407870     -0.44796965      1.20709744
N       3.15516678     -0.33692330      1.75292687
O       0.48180520     -1.94818291      0.40380446
H      -2.74151114      1.13493825     -1.58427073
H      -1.45104547      2.29665988     -0.96064501
H      -1.46790812     -0.76718256     -0.74874807
H       0.57373975      1.37172430      0.21647471
H       1.12394505     -2.54681598      0.79861381
