13
b3lypvtz=-237102.01102425
N      -1.92929217     -1.34115376     -0.10427291
C      -1.87987912      0.10027502      0.13261192
C      -0.47253035      0.69250258      0.03067845
O      -0.28657858      1.88735444     -0.02936707
N       0.53917302     -0.24968996      0.04294401
C       1.89062064      0.04323930     -0.01454118
O       2.74574770     -0.80714417     -0.00701906
H      -2.64671334     -1.78632335      0.45025287
H      -2.11816922     -1.55422557     -1.07503357
H      -2.51277728      0.69652672     -0.52977728
H      -2.21462826      0.31042136      1.15054330
H       0.24803696     -1.22053818      0.08552783
H       2.08687200      1.12154857     -0.06694530
