14
b3lypvtz=-227000.81020619
C      -0.37936232     -0.13833934     -1.33276830
C      -0.03181183      0.08850419      0.15227592
N      -0.13421871      1.46737258      0.58518777
C      -0.94485540     -0.79897103      1.02456584
O      -1.20318621     -1.94678137      0.77801976
C       1.38934777     -0.44283343      0.37032447
O       2.30578029      0.24614170      0.73094046
H      -1.37741774      0.25303716     -1.53692178
H       0.33590460      0.37859805     -1.97322149
H      -0.38120703     -1.20039285     -1.57248584
H      -0.54292382      2.05823950     -0.12436574
H       0.78493772      1.82848571      0.81740220
H      -1.33273909     -0.27175562      1.91711624
H       1.51155177     -1.52130526      0.16383049
