16
b3lypvtz=-202045.78272585
C       0.86031472      2.19497213     -0.14513468
N       0.99873217      1.00578833      0.26177619
C      -0.09315221      0.11423880      0.07045421
N      -1.29873171      0.53394309      0.13383412
C      -2.36571783     -0.43134957     -0.01840205
N       0.31229517     -1.17716065     -0.14498970
C       1.68138572     -1.65146652     -0.01133712
H      -0.04124141      2.54232077     -0.65300579
H       1.66465380      2.90458557      0.03307576
H      -3.32637093      0.07216744      0.07952496
H      -2.34931787     -0.92819768     -0.99920170
H      -2.33407675     -1.22058403      0.74814735
H      -0.41056889     -1.87320671     -0.11899846
H       2.07274912     -1.52148014      1.00003888
H       1.69686694     -2.71190890     -0.25964613
H       2.34681497     -1.13235893     -0.69863885
