15
b3lypvtz=-214535.97697039
C       3.20100146      0.31706676      0.12588107
N       2.02401417     -0.47838540     -0.16724864
C       0.76515643      0.03110910     -0.07698989
C      -0.38367772     -0.67381420     -0.01286951
C      -1.69460873     -0.05174892      0.01588821
N      -2.83665001     -0.61708759      0.07609527
O      -1.66169642      1.31225550     -0.02280245
H       3.39605841      0.41881840      1.19952823
H       3.07602462      1.31513402     -0.29328398
H       4.07523700     -0.13398066     -0.34226702
H       2.11957212     -1.47398012     -0.04661797
H       0.71693483      1.11310592     -0.09128338
H      -0.36639537     -1.75654407      0.01382785
H      -2.74582667     -1.62790322      0.10052319
H      -2.58828312      1.58750849      0.00710600
