16
b3lypvtz=-181177.17689674
C      -2.50259269      0.61600311     -0.00000421
C      -1.13421087      0.02356598      0.00000472
C      -0.71230615     -1.28342040      0.00001070
C       0.71230632     -1.28342029     -0.00000999
C       1.13421083      0.02356616     -0.00000464
C       2.50259262      0.61600340      0.00000088
N      -0.00000008      0.80606350      0.00000123
H      -0.00000015      1.81085114     -0.00000547
H      -2.68255728      1.23836175      0.88184270
H      -3.24894023     -0.17682469      0.00003848
H      -2.68258028      1.23828842     -0.88189855
H      -1.35810707     -2.14608938      0.00000314
H       1.35810740     -2.14608915     -0.00000107
H       3.24894022     -0.17682434     -0.00002526
H       2.68257589      1.23830320      0.88188580
H       2.68256151      1.23834758     -0.88185546
