15
b3lypvtz=-214517.84656506
C      -2.95852406     -0.42603781      0.10328489
N      -1.69395982      0.24309471     -0.13304564
N      -0.59146084     -0.48952791     -0.07269586
C       0.56725145      0.08917885     -0.01832728
C       0.79851377      1.56836894      0.01591323
C       1.70036154     -0.84029907     -0.00227544
O       2.86532552     -0.50398876      0.05555247
H      -3.12545983     -0.64997705      1.16194276
H      -3.76710969      0.20987705     -0.25514535
H      -2.96961483     -1.35941790     -0.45534816
H      -1.63539903      1.22625193      0.10506320
H       1.86678010      1.76344498      0.07425375
H       0.40374021      2.05402779     -0.88177970
H       0.31774219      2.03506648      0.88255734
H       1.39914734     -1.90328525     -0.04477222
