15
b3lypvtz=-193600.80040567185
C       3.20456397      0.34824199      0.26343064
C       2.00414566     -0.14943016      0.19741683
C       0.80377392     -0.64609668      0.12526947
C      -0.16407275     -0.40071779     -1.01425031
C      -1.44541868      0.24385254     -0.56154059
C      -2.63822537     -0.34995609     -0.57513186
O      -1.22883562      1.52181941     -0.12947663
H       4.05799169     -0.17441372     -0.15321688
H       3.39306597      1.30348259      0.73987783
H       0.45045020     -1.28455448      0.93028661
H       0.31111515      0.23936546     -1.75952780
H      -0.40939705     -1.34906546     -1.49528966
H      -3.53374409      0.15748667     -0.23827228
H      -2.74359518     -1.36203763     -0.93325128
H      -2.06181782      1.90202335      0.17078820
