14
b3lypvtz=-227009.50174578
N       1.62741058      1.15735032     -0.50741627
C       1.44185068     -0.26497140     -0.42659433
C       1.14030891     -1.01521598      0.83013466
C       0.04946841     -0.84824233     -0.22368014
C      -1.07352582      0.06155259      0.07616961
O      -1.02617923      1.04739642      0.77850808
O      -2.21410081     -0.32326182     -0.54225705
H       2.56987313      1.40109995     -0.22620432
H       0.98382608      1.63636456      0.11285136
H       2.01833261     -0.79879008     -1.17228550
H       1.53256626     -2.01328027      0.97039742
H       1.00625322     -0.43154455      1.73063997
H      -0.21509823     -1.70689726     -0.82136351
H      -2.89015479      0.32873287     -0.30412398
