14
b3lypvtz=-203666.10536632
C       3.28604120     -0.29738055     -0.24888135
C       1.87906970     -0.05733602      0.03450744
C       0.72030800      0.14912560      0.27898631
C      -0.70165835      0.37559273      0.53359268
O      -1.22364124      1.49081545     -0.18167482
C      -1.50482089     -0.89991955      0.25525717
N      -2.53884072     -0.97594949     -0.45982700
H       3.40995409     -1.05346107     -1.02614736
H       3.77663434      0.61749303     -0.58629696
H       3.80771076     -0.64448467      0.64495505
H      -0.83990933      0.61614117      1.59402219
H      -0.78623172      1.52597899     -1.03922173
H      -1.12274407     -1.79697759      0.74530417
H      -2.76393577     -0.04804804     -0.83188579
