18
b3lypvtz=-181909.77059433
C      -2.63933697     -0.85676735     -0.15333513
C      -1.88396843      0.23388094     -0.13383610
C      -0.68714492      0.44487070      0.75499665
C       0.58931168      0.67701394     -0.04825381
N       1.13271204      1.81302123     -0.21585446
C       1.22904422     -0.53648860     -0.68126126
C       2.03163489     -1.37271670      0.32724929
H      -2.43955366     -1.69947745      0.49851405
H      -3.48899618     -0.94442686     -0.81767730
H      -2.11901709      1.05536138     -0.80457625
H      -0.56616723     -0.42074264      1.41045290
H      -0.85409537      1.31865727      1.39163329
H       0.61927524      2.54418262      0.27948658
H       1.88940324     -0.18635382     -1.47356783
H       0.45516733     -1.15978815     -1.13650197
H       1.40242986     -1.75954570      1.13074558
H       2.82491414     -0.77500007      0.77755655
H       2.49238619     -2.22774173     -0.16894779
