13
b3lypvtz=-237081.53583565
N       2.11417340     -0.96513803     -0.41649157
C       0.79754012     -0.85343552      0.20731202
C       0.25469476      0.54647041      0.09274043
O       1.19427902      1.47293949      0.32709697
N      -0.93059439      0.93599809     -0.18022392
C      -1.99794610      0.05963479     -0.30708732
O      -2.18927271     -0.94293714      0.34372230
H       2.43848379     -1.92197867     -0.35639453
H       2.79046634     -0.38549960      0.06422487
H       0.76936658     -1.09711700      1.28052647
H       0.10313237     -1.53672089     -0.27370966
H       0.76765724      2.33958697      0.24595251
H      -2.72763341      0.41025712     -1.05324157
