16
b3lypvtz=-204454.79000851
O       2.52178645     -0.78871973      0.30419776
C       1.53445682     -0.22235010     -0.55406746
C       0.16663510     -0.49432492      0.05649112
C      -0.07301919      0.21068456      1.37536158
N      -1.18352081      0.80643848      1.51312961
C      -1.97425401      0.62382535      0.28481036
C      -1.02027450      0.03022523     -0.77838990
H       3.39369508     -0.57995867     -0.04217614
H       1.68035094      0.85992594     -0.66097951
H       1.58477172     -0.66796952     -1.55486723
H       0.09665903     -1.57594261      0.21933946
H       0.66020780      0.19691027      2.17615949
H      -2.41095231      1.57782336     -0.01309642
H      -2.80779006     -0.04581439      0.51522807
H      -0.68060351      0.81477696     -1.45884748
H      -1.48824854     -0.74553019     -1.38219330
