17
b3lypvtz=-191962.5073497
C      -0.32606536      1.86838633      0.19043736
C      -0.65672272      0.52906602     -0.45218173
N      -1.91312058     -0.09780470      0.06411855
C      -1.23538496     -1.41794834      0.22881991
C       0.08545647     -0.72392665     -0.01575828
C       1.35638599     -1.07835012      0.13641231
N       2.48279094     -0.33299855     -0.22835430
H       0.62628324      2.26612893     -0.17103780
H      -1.09861626      2.60199863     -0.04977511
H      -0.27678420      1.76793425      1.27466407
H      -0.66086221      0.64355309     -1.54658044
H      -2.67410489     -0.10621341     -0.60343275
H      -1.39535270     -1.87420660      1.20971355
H      -1.49878650     -2.15492922     -0.54070076
H       1.59128551     -2.06852026      0.51264857
H       3.28416576     -0.47148606      0.36786523
H       2.30923248      0.64941664     -0.37685838
