16
b3lypvtz=-204420.0318446
C       1.83993496      0.15456898      0.51293987
C       0.70837766      0.07574526     -0.49021287
C      -0.73596513      0.31966270     -0.04288614
C      -1.15662741     -0.93805972     -0.79414348
N       0.28433215     -1.30567637     -0.87355591
C      -1.26321969      0.91251313      1.17988800
O      -1.40291591      1.56339537     -0.09983624
H       2.77350287     -0.19676073      0.06904593
H       1.99586148      1.18454669      0.84221940
H       1.62446585     -0.46727849      1.38230462
H       0.92376109      0.71174900     -1.35827066
H      -1.62456452     -0.69137389     -1.75279799
H      -1.77765862     -1.66311966     -0.26555368
H       0.59194689     -1.59958759     -1.79168644
H      -2.18639544      0.53207395      1.60593019
H      -0.59483624      1.40760136      1.87661539
