13
b3lypvtz=-211326.15466616
C      -3.46443978      0.12171882      0.46744461
N      -2.39264818      0.16039657     -0.21475831
N      -1.24500367      0.05778487      0.58164533
C      -0.17142029      0.08983784     -0.11977677
C       1.11586949     -0.00772411      0.51870023
N       2.17772739      0.01206650     -0.20402443
N       3.37441558     -0.02121911      0.40569643
H      -3.45994346      0.01793704      1.55205806
H      -4.40711518      0.19374396     -0.06220849
H      -0.20077164      0.18697228     -1.20442522
H       1.14224561     -0.09478348      1.60725796
H       3.41631001     -0.39135580      1.35027061
H       4.11477413     -0.32547539     -0.20388000
