13
b3lypvtz=-242067.88161202
C      -1.24106731      1.55743750     -0.24776785
C      -0.71461295      0.33165621     -0.11702622
C       0.66646144      0.12674312      0.29979586
C       1.39202127     -0.99190492      0.21217402
O       2.67448517     -1.11414263      0.63224897
F       1.29108606      1.22046645      0.83194253
N      -1.39986962     -0.85444711     -0.43716181
H      -2.27665322      1.69049704     -0.52850843
H      -0.64000010      2.43898583     -0.09699277
H       0.99354651     -1.88657375     -0.23747139
H       2.96156148     -0.26791655      0.99914721
H      -2.35980047     -0.69083462     -0.70218350
H      -1.34715825     -1.55996657      0.28500407
