18
b3lypvtz=-181882.06117531
C      -3.52227406      0.16834147     -0.19078629
C      -2.11870867     -0.17222713     -0.00346042
C      -0.96014327     -0.45385541      0.14241934
C       0.43994724     -0.82448729      0.34003027
N       1.38500188      0.07588405     -0.32254633
C       1.33550556      1.42505065      0.21847426
C       2.73185322     -0.46768329     -0.27900413
H      -3.97182175     -0.42970458     -0.98598266
H      -3.63689735      1.22018245     -0.46061560
H      -4.09521954     -0.00432499      0.72253083
H       0.59891982     -1.82773052     -0.06427065
H       0.64149268     -0.89285134      1.42624401
H       2.00314728      2.07077170     -0.35278006
H       0.32425577      1.81997185      0.13713268
H       1.63985070      1.47054367      1.27952621
H       3.40787059      0.18834356     -0.82806374
H       3.12388081     -0.57452059      0.74844547
H       2.75391809     -1.44980226     -0.75349719
