13
b3lypvtz=-190425.69899757
C       2.94878357      0.02520376     -0.36099942
C       1.82590321     -0.12343100      0.03386811
C       0.47070718     -0.32665848      0.52031856
C      -0.59902499     -0.90449666     -0.46765253
C      -1.43662030      0.31419229     -0.10120514
N      -2.63345597      0.62070054     -0.35156658
N      -0.37550953      0.88296286      0.60078292
H       3.93925186      0.16580362     -0.71585100
H       0.49727424     -0.89064520      1.45664825
H      -1.02855205     -1.86148666     -0.18366821
H      -0.27544378     -0.93006159     -1.50499455
H      -2.90396465      1.50641452      0.07416335
H      -0.42934877      1.52150200      1.38077192
