15
b3lypvtz=-193596.7831967
C      -3.21617748     -0.22408650     -0.66042982
C      -2.24648916      0.07188229     -0.01889740
C      -1.06015606      0.41514832      0.76785921
C       0.11692397     -0.48306619      0.48180941
C       1.30864889     -0.11535309      0.00623564
C       1.77127467      1.25686179     -0.36179050
O       2.31898780     -1.01846272     -0.21634586
H      -4.07211995     -0.48186644     -1.23205124
H      -0.80659138      1.46046339      0.58653343
H      -1.32549523      0.35251910      1.82946497
H      -0.05060089     -1.53787002      0.68040118
H       1.00060559      2.00856264     -0.21964960
H       2.08380378      1.27075945     -1.40785690
H       2.64209617      1.52922429      0.23816593
H       2.01099929     -1.90284130      0.01142557
