18
b3lypvtz=-181888.27790539
C       2.85600074     -0.62946611      0.05422012
C       1.87209346      0.43907743     -0.31667768
C       0.55768544      0.29602117     -0.32121013
C      -0.61838870      1.17996905     -0.67976610
N      -1.46575303     -0.03776176     -0.72822745
C      -0.41187456     -0.83952942     -0.05849498
C      -2.77145441      0.01748826     -0.11298828
H       2.35957466     -1.56796081      0.30184397
H       3.45716674     -0.33044413      0.91766360
H       3.55642236     -0.82278671     -0.76300156
H       2.28568519      1.40331352     -0.59993590
H      -0.57366146      1.74364023     -1.61467923
H      -0.89576210      1.86721987      0.13463251
H      -0.21255681     -1.80833251     -0.52306762
H      -0.60194169     -0.99657360      1.01494892
H      -2.74140482      0.34430478      0.94176516
H      -3.24042297     -0.96753590     -0.14893474
H      -3.41140804      0.70935665     -0.66367704
