19
b3lypvtz=-171825.6124253
C       2.00263370     -1.44444373     -0.04369363
C       1.20649406     -0.49333234      0.42887866
C       0.48058297      0.52691918     -0.40451576
C       0.85564978      1.94838505      0.05046032
C      -1.03939024      0.36042036     -0.40345730
C      -1.81911678     -0.13331849      0.78661951
C      -1.71299378     -0.98061484     -0.45598235
H       2.51214362     -2.13770103      0.61318248
H       2.17715004     -1.56210052     -1.10726087
H       1.07178545     -0.41132972      1.50452395
H       0.81452609      0.40315736     -1.44024530
H       1.93291185      2.10868431     -0.00921671
H       0.54396484      2.12002132      1.08298249
H       0.36484848      2.69699633     -0.57439669
H      -1.53178058      1.14081823     -0.97349211
H      -2.76526607      0.34076496      1.00859695
H      -1.27627152     -0.46343492      1.66138145
H      -1.08567086     -1.86010062     -0.40341722
H      -2.58859603     -1.08999189     -1.08117089
