17
b3lypvtz=-171020.31654055626
C       2.11309356      0.53730621      0.61446575
C       1.31387654     -0.29514138     -0.39239176
C      -0.16933912     -0.15027798     -0.24468841
C      -1.10124364      1.08105374     -0.35460013
C      -2.11732413     -0.02878635     -0.04139512
C      -1.10605851     -0.85647308      0.73192711
C      -1.26792800     -1.10732221     -0.69026268
H       3.18627711      0.41202796      0.46252848
H       1.88047207      0.24414734      1.63952630
H       1.88605816      1.60014217      0.51419039
H       1.57316263     -1.35308821     -0.28602411
H       1.60219265     -0.01127693     -1.40951888
H      -1.17510481      1.53327459     -1.34770748
H      -0.97746236      1.84773625      0.41486256
H      -3.19055982     -0.02391647      0.08137885
H      -1.05965148     -1.45630793      1.62160800
H      -1.39046085     -1.97309770     -1.31389887
