17
b3lypvtz=-215259.90621796
C      -2.00216193     -0.89509940     -0.79157446
C      -1.59075913      0.11290830      0.28029723
N      -1.45030180      1.43566227     -0.32829808
C      -0.34786370     -0.35051383      1.09506464
C       0.87936691     -0.56466098      0.27082761
N       1.82340738      0.28413894      0.30105671
O       2.87437251     -0.08320318     -0.56104602
H      -2.14036599     -1.89151691     -0.36790820
H      -2.93545311     -0.58157688     -1.25757629
H      -1.24851858     -0.96620501     -1.57919067
H      -2.40981986      0.18874328      1.00106119
H      -0.66271730      1.44729959     -0.96806996
H      -1.24931341      2.13292067      0.37967405
H      -0.13036797      0.40113571      1.85554308
H      -0.59443705     -1.28332730      1.61255437
H       0.95954458     -1.44196124     -0.37077633
H       3.51819745      0.61796797     -0.41930888
