14
b3lypvtz=-226999.08972581
C      -1.93500860      1.12398819      0.32509210
C      -0.68443923      0.83966150      0.65544189
C      -0.00950337     -0.48166704      0.39540325
O      -0.88318388     -1.34342535     -0.30933570
C       1.29141871     -0.26799833     -0.37802263
N       1.53613517     -0.57271831     -1.57591245
O       2.22752466      0.31850999      0.40431616
H      -2.56904124      0.39810703     -0.16380971
H      -2.35601059      2.09715766      0.53855750
H      -0.05427431      1.57389672      1.14260266
H       0.27119511     -0.91687624      1.36397506
H      -0.55303527     -2.24378252     -0.23634686
H       0.71043870     -0.97949223     -2.00936436
H       3.00798413      0.45483893     -0.15239690
