10
b3lypvtz=-279683.26524408
N      -0.64567078      1.62774251     -0.36547973
C      -0.77747110      0.37449553     -0.30254641
O      -1.97891047     -0.26304894     -0.27355023
C       0.39850197     -0.51680827     -0.25438946
F       0.07904490     -1.84434480     -0.18804925
C       1.69776355     -0.23474713     -0.26529928
F       2.17689349      0.99895669     -0.32655950
H      -1.55514181      2.08570457     -0.39098793
H      -1.84673736     -1.21890050     -0.22502352
H       2.45182760     -1.00904966     -0.22411470
