17
b3lypvtz=-217667.62751408
C      -0.44360559      1.19450829     -1.00076680
C      -0.16259848      0.08359161     -0.00060041
C       1.30712992      0.02216545      0.38824874
O       2.07381712     -0.25967972     -0.78067688
C      -0.74423292     -1.31455346     -0.31521122
O      -1.39829575     -1.37894547      0.97599965
C      -1.08020508      0.00471837      1.24118410
H      -0.19860800      2.17135876     -0.57551355
H       0.15630281      1.06450413     -1.90143830
H      -1.49672551      1.20728367     -1.28551746
H       1.60799173      0.98118403      0.83094413
H       1.44970148     -0.75936819      1.14368310
H       2.99820172     -0.34704913     -0.53347049
H      -0.02495839     -2.12270971     -0.45605146
H      -1.47057650     -1.32670690     -1.13339351
H      -1.96771468      0.64300481      1.18448236
H      -0.60582387      0.13689348      2.21799799
