15
b3lypvtz=-193616.88664869
C      -2.83397851     -0.09319896      0.00005016
C      -1.63653525     -0.67066412     -0.00000665
C      -0.37846186      0.13299563      0.00026045
O      -0.39506983      1.35156191      0.00054279
C       0.89832966     -0.63057180      0.00009481
C       2.08211201     -0.02778441     -0.74144608
C       2.08207825     -0.02815592      0.74200252
H      -3.74716207     -0.67283783     -0.00016967
H      -2.91520236      0.98643396      0.00032691
H      -1.54063712     -1.75014673     -0.00026056
H       0.81603537     -1.70828323     -0.00018119
H       1.88654606      0.91077728     -1.23999708
H       2.72975426     -0.71559199     -1.26622353
H       1.88646896      0.91015297      1.24101439
H       2.72970642     -0.71621577      1.26646372
