14
b3lypvtz=-226986.45041116
C       2.04173558     -0.49616907      0.02455887
O       2.24127613     -1.10885016     -1.00352708
C       0.74535490      0.07328065      0.40609206
C      -0.51839226     -0.48423047     -0.23945254
C      -0.04501514      0.85004599     -0.68336095
O      -0.75676270      1.97265256     -0.31819434
N      -1.71099684     -0.45642329      0.57195006
H       2.87058450     -0.30933843      0.73571311
H       0.65113475      0.48581640      1.40167035
H      -0.33670009     -1.32440754     -0.90236468
H       0.45486052      0.94434013     -1.63726687
H      -1.45287947      1.66001461      0.28351483
H      -2.52585573     -0.69488714      0.01914764
H      -1.65834414     -1.11184423      1.34151955
