14
b3lypvtz=-226996.84464124
N      -2.60831397      0.26741284      0.58183293
C      -1.25050027      0.30770989      0.31533238
O      -0.83972705      1.59377122      0.16414015
C      -0.42836992     -0.76235658      0.28626013
C       1.02096364     -0.70170931      0.11336743
C       1.68761019      0.02613191     -0.79238970
O       3.04691955      0.12281831     -0.90850349
H      -3.12321590      1.03415521      0.17630551
H      -3.04166743     -0.62494857      0.40977404
H       0.12847479      1.59210070      0.15084410
H      -0.86805582     -1.72773363      0.50380189
H       1.61653362     -1.32283144      0.78368380
H       1.19671152      0.60630916     -1.56345937
H       3.46253704     -0.41062972     -0.22108981
