18
b3lypvtz=-205192.23783701
O       3.29469397      0.18519374     -0.50417022
C       2.05606331      0.54606433      0.09775233
C       0.96648617     -0.49477074     -0.14457209
N      -0.29598033     -0.08772408      0.43294882
C      -1.09649475      0.95576520     -0.24658020
C      -2.37407453      0.18036089      0.13990921
C      -1.43569620     -1.02489269      0.36691763
H       3.63998775     -0.58985470     -0.05094934
H       1.77482129      1.49615257     -0.35902555
H       2.16268826      0.71812406      1.17415640
H       1.26383414     -1.43833493      0.32572253
H       0.89031253     -0.68436379     -1.22981673
H      -0.93617903      0.97050514     -1.33468038
H      -0.97011455      1.96672887      0.14303114
H      -3.14349793      0.07674173     -0.62070518
H      -2.81938676      0.54320468      1.06378700
H      -1.58116471     -1.63599721      1.25947618
H      -1.39619862     -1.68300308     -0.51300155
