12
b3lypvtz=-200512.40467309
C      -2.67984014     -0.43156719      0.04704187
C      -1.55405766     -0.01339279      0.01665157
C      -0.22792923      0.53937708     -0.01287019
N       0.02022815      1.79002374     -0.06314294
C       0.92663730     -0.43686080     -0.00157448
N       0.79539348     -1.70615603     -0.07211931
N       2.14168267      0.16423808      0.10102430
H      -3.67433105     -0.80414590      0.07340516
H      -0.83417783      2.34427018     -0.08003758
H      -0.18552085     -1.96734158     -0.10624510
H       2.95398683     -0.40172325     -0.06814638
H       2.18884434      1.15763547     -0.04606092
