16
b3lypvtz=-202057.11048922
N       2.29390635     -0.03817641     -0.31577738
C       0.97046882     -0.14782046      0.05926830
N       0.34544787     -1.25475826     -0.05540787
C      -1.06092581     -1.17712447      0.31627007
C      -1.77643697      0.00663635     -0.34728422
N      -1.03808486      1.27082130     -0.15027963
C       0.26058769      1.10821237      0.51872994
H       2.84343365      0.67668183      0.13084559
H       2.76880184     -0.91968091     -0.44043254
H      -1.55647320     -2.10611898      0.03290553
H      -1.16301264     -1.09300789      1.40683261
H      -1.87485191     -0.20527694     -1.41578646
H      -2.78757587      0.09573249      0.06205257
H      -0.87674886      1.70303941     -1.04856711
H       0.85813182      2.00148958      0.33640739
H       0.10407306      1.04649699      1.60117921
