15
b3lypvtz=-191217.80677925
C       2.31035946      0.33377600     -0.22615904
C       0.86464051     -0.03374719     -0.27279352
N       0.10998253      0.11302695     -1.30068904
C      -1.22500570     -0.26530355     -0.89793853
C      -1.87771562      0.56293588      0.18219273
C      -1.15333203     -0.70622359      0.55883090
N       0.25658058     -0.61565445      0.83312457
H       2.48015836      1.16824268      0.45888736
H       2.63730272      0.62953195     -1.21917748
H       2.91396595     -0.50703160      0.12093596
H      -1.83982183     -0.75032233     -1.64215724
H      -2.95724247      0.52993480      0.23313283
H      -1.43130626      1.51736274      0.43082618
H      -1.68220627     -1.55056668      0.97783242
H       0.59364006     -0.42596160      1.76315191
