12
b3lypvtz=-223804.50584909704
C      -1.75948991     -0.34232042      0.03834708
N      -0.37007816     -0.70891153     -0.04526895
C       0.67116601      0.21978780     -0.15624713
N       0.42080896      1.50175348     -0.19028692
N       0.29551121      2.63134644     -0.22660077
C       2.06488592     -0.16929968     -0.23838871
O       3.01416106      0.58210027     -0.33574724
H      -2.35463497     -1.24940683      0.11831991
H      -1.97593948      0.27577211      0.91767329
H      -2.10203021      0.20250039     -0.84945342
H      -0.10148872     -1.67254813     -0.02554613
H       2.19712829     -1.27077390     -0.20279440
