14
b3lypvtz=-203666.66206135
C       2.23687380     -0.67604644     -0.14708730
C       1.32782775      0.08407565     -0.74070140
C       0.14911668      0.68887427     -0.05055282
C      -1.21436088      0.06028720     -0.32500481
N      -1.89211434     -0.05347362     -1.37233406
C      -1.27947696     -0.28434371      1.15267665
O       0.01283573      0.33542675      1.35294604
H       3.07113698     -1.08552574     -0.70011025
H       2.17169621     -0.90174506      0.90868266
H       1.39434936      0.31385418     -1.79915710
H       0.14370028      1.77772185     -0.18211209
H      -2.77577315     -0.53678045     -1.20487823
H      -2.07314385      0.21332079      1.71718538
H      -1.27266760     -1.35182277      1.39044733
