13
b3lypvtz=-237061.65216885
N       0.97232666      1.03086409      0.57566693
C       0.40130905      0.08689867     -0.30738640
C       0.99176254     -1.08854842     -0.52102083
O       2.14409189     -1.46654305      0.07605657
O      -0.73455791      0.44615520     -1.04720760
C      -1.95502202      0.34903795     -0.42728369
N      -2.25467132     -0.17572615      0.67459645
H       1.22110493      1.89372097      0.10417897
H       0.36827501      1.26305120      1.35616531
H       0.58872249     -1.82325008     -1.20219643
H       2.41058449     -0.72648844      0.64573511
H      -2.70696001      0.81586799     -1.05618625
H      -1.44696578     -0.60493995      1.12888186
