16
b3lypvtz=-202041.22381305
C      -2.63177550      0.15988374      0.44243239
N      -1.33153506     -0.49988383      0.45790658
C      -0.31985341      0.16819206     -0.34143453
C       1.07701991     -0.34276961     -0.03737195
N       1.40333491     -1.10053989      0.92461648
N       2.02722716      0.06407278     -1.00100473
C       3.13452008      0.51770060     -0.59351089
H      -3.05065153      0.30524869     -0.56429099
H      -3.34169649     -0.42641100      1.02564525
H      -2.54714971      1.14134156      0.91252136
H      -1.43082572     -1.45762455      0.14281900
H      -0.34298716      1.23809747     -0.10722978
H      -0.47983701      0.09590510     -1.42640606
H       0.57095019     -1.29514836      1.48435005
H       3.36957204      0.63810409      0.46684175
H       3.89368732      0.79383114     -1.32143106
