13
b3lypvtz=-239471.37299881
C       0.70375925      0.10212088      0.83944909
C       1.69860459     -0.33556411     -0.21172248
O       2.38157733     -1.32314787     -0.11324260
C      -0.68615319      0.44877949      0.27167354
C      -1.34776493     -0.73925587     -0.39667120
O      -1.78522804     -0.67433186     -1.51830480
O      -0.60730454      1.53738958     -0.61124972
H       0.63528106     -0.66966663      1.60718577
H       1.08819302      1.01435806      1.30573630
H       1.77133077      0.32338316     -1.09707871
H      -1.33188585      0.69676013      1.13007895
H      -1.42661946     -1.66287768      0.20498643
H      -1.09379003      1.28205273     -1.41084057
