12
b3lypvtz=-223851.97040215
C      -2.47948730     -0.40913572      0.00001581
C      -1.05329340      0.00831594      0.00001258
N      -0.60893426      1.23136224     -0.00003513
N       0.78503773      1.18627847      0.00004477
C       1.10966593     -0.06814663      0.00000347
O       2.34272854     -0.59652615      0.00000209
N       0.01255586     -0.87099772      0.00002681
H      -0.00011863     -1.87616944     -0.00000433
H      -3.09817427      0.48506421      0.00001486
H      -2.72699368     -1.00253022     -0.88319198
H      -2.72699945     -1.00253566      0.88321832
H       2.96542194      0.14225669     -0.00000826
