13
b3lypvtz=-237078.59750998
N      -2.61788519     -0.92913902     -0.67546912
C      -1.60944861     -0.02089007     -0.43025109
N      -0.42849690     -0.37139310     -0.11284602
C       0.54041694      0.57527778      0.21488184
C       1.75580668      0.10758790      0.54396804
O       2.79808849      0.89303930      0.87796662
O       2.05066227     -1.21113710      0.57068949
H      -2.31196919     -1.87765795     -0.83082106
H      -3.35554732     -0.62642498     -1.28961945
H      -1.92867482      1.02370786     -0.48066303
H       0.33965241      1.64039774      0.21098707
H       3.54583127      0.31982550      1.08262938
H       1.22166397     -1.65609386      0.31824734
