17
b3lypvtz=-217683.73648549
O       2.01552825     -0.63382731      0.78304118
C       1.64616373     -0.22615589     -0.53261481
C       0.17576266      0.16544492     -0.54200010
C      -0.79916053     -0.93035057     -0.08226301
C      -2.00632323     -0.10938932      0.35306921
O      -1.46888855      1.07134088      0.94884792
C      -0.17457129      1.33884939      0.39666237
H       2.95210314     -0.84713903      0.79081876
H       1.81033827     -1.03987863     -1.24959409
H       2.25439243      0.62768682     -0.85693882
H      -0.06967910      0.44545614     -1.57081868
H      -0.37790003     -1.46960647      0.76608433
H      -1.03237923     -1.64586583     -0.87162876
H      -2.63148595     -0.60504224      1.09623430
H      -2.63747462      0.15117720     -0.50799085
H      -0.19556375      2.29249029     -0.13974238
H       0.53903778      1.41490967      1.21873345
