17
b3lypvtz=-191959.40573352
C       1.77456722     -1.37747779      0.13461954
C       1.41499755     -0.11130677     -0.59792144
C       1.51224850      1.22146342      0.04809784
N       0.20019208      0.66914938     -0.26012939
C      -0.63824408      0.26654573      0.81319530
C      -1.89162654     -0.13249720      0.57026292
N      -2.44363130     -0.27511064     -0.69825445
H       2.81627367     -1.64004941     -0.06153933
H       1.64798813     -1.27762535      1.21176743
H       1.15089577     -2.20953197     -0.19884593
H       1.58248563     -0.15516951     -1.66948233
H       1.80479476      2.09801082     -0.51880795
H       1.80923796      1.24204101      1.09345600
H      -0.26561591      0.30100345      1.83124056
H      -2.53019257     -0.42373703      1.39395387
H      -3.43295226     -0.08922365     -0.75154882
H      -1.92040259      0.22514651     -1.40485684
