14
b3lypvtz=-203703.95517528
O      -2.43457981     -0.63368834      0.09054779
C      -1.30410277     -0.26003433     -0.11725098
C      -0.13018139     -1.20303573     -0.24652405
C       1.09692307     -0.64982080      0.48816768
C       1.29022630      0.82045664      0.21536574
N       0.40642932      1.65122816     -0.14460490
C      -0.97722621      1.21746056     -0.29712655
H      -0.42247140     -2.19271994      0.10020514
H       0.09999722     -1.27739859     -1.31537377
H       0.99176818     -0.79049669      1.56997327
H       1.99963996     -1.19486047      0.20502387
H       2.29997688      1.21043993      0.35113486
H      -1.31776078      1.51346399     -1.29566584
H      -1.59843856      1.78920563      0.39622775
