16
b3lypvtz=-204441.4542713
C      -0.81524683     -1.00078954     -0.78973926
C      -1.87526105      0.06696290     -0.38346639
C      -0.75443894      0.85279836      0.27567691
N      -0.78134150      1.75894908      1.14797834
C       0.32350167     -0.01235749     -0.39006116
C       1.46433363     -0.51253323      0.48038566
O       2.30615133      0.54548366      0.93617909
H      -0.82645607     -1.33136888     -1.82586200
H      -0.84194754     -1.87599435     -0.14022967
H      -2.29718642      0.59321518     -1.24186250
H      -2.69075936     -0.24562748      0.26716398
H       0.16817998      2.01446417      1.42532253
H       0.72756060      0.49310085     -1.27407276
H       2.04357218     -1.27573290     -0.05346916
H       1.06645165     -0.97661548      1.38411631
H       2.78288668      0.90604515      0.18194008
