18
b3lypvtz=-181909.92172998
C      -2.34391569     -0.87713020      0.17570842
C      -0.87324086     -1.11346538      0.01484666
C       0.08787593     -0.22672609     -0.27573402
C      -0.16661768      1.21964286     -0.47769710
N      -0.87684547      2.01473412      0.21453288
C       1.52498173     -0.65380885     -0.47956407
C       2.48008464     -0.11703212      0.59498766
H      -2.90774124     -1.63846948     -0.36836716
H      -2.65600572      0.10260483     -0.18170943
H      -2.64530625     -0.96335875      1.22452358
H      -0.56399224     -2.15035906      0.11746026
H       0.35597294      1.65766095     -1.33419645
H      -1.28629581      1.52646598      1.01281335
H       1.86325128     -0.30323640     -1.46085800
H       1.57610124     -1.74356624     -0.50586109
H       2.19914310     -0.48596840      1.58283895
H       2.46700981      0.97346678      0.63304753
H       3.50546630     -0.43167056      0.39494006
