15
b3lypvtz=-214510.79674713
C       2.77812040     -0.60499240     -0.00005019
C       1.60335404      0.03313423      0.00000561
O       1.49233701      1.37617601      0.00001514
N       0.37481614     -0.63170958      0.00007439
N      -0.76557580      0.07770707      0.00002857
C      -1.89503038     -0.51711013     -0.00000181
C      -3.17452515      0.24977353     -0.00003641
H       3.69596631     -0.04204633     -0.00008828
H       2.82062704     -1.68304571     -0.00005110
H       0.54182767      1.58084168      0.00002781
H       0.35930298     -1.64224083      0.00000020
H      -1.94782457     -1.60998766      0.00000023
H      -2.97591107      1.32009480     -0.00003399
H      -3.77925098      0.00599286     -0.87805155
H      -3.77929562      0.00599746      0.87794937
