15
b3lypvtz=-191236.15990024
C       2.50128611     -0.12930702      0.60227067
C       1.59978627      0.21601050     -0.59344366
C       0.13796724      0.16766036     -0.28043080
C      -0.78065840      1.16379079     -0.01656688
C      -1.99247873      0.49068592      0.24122238
N      -1.85483662     -0.82475878      0.14742348
N      -0.55488947     -0.99571929     -0.16688165
H      -0.20874305     -1.92901485     -0.30544912
H       2.33228390      0.56272378      1.42771521
H       2.30498979     -1.13769458      0.97002511
H       3.55384316     -0.07446564      0.32018921
H       1.83678539      1.21908573     -0.95013792
H       1.82043744     -0.46218183     -1.42322813
H      -0.59698207      2.22429234     -0.01497428
H      -2.95496996      0.91016259      0.48581336
