22
b3lypvtz=-183439.14015422
C       2.52049754      0.46834052      0.19516813
C       1.53383702     -0.69225212      0.35122918
C       0.33143921     -0.65501052     -0.61516602
C      -0.99069825      0.00473467     -0.13640737
C      -0.78438343      1.45848023      0.30234158
C      -1.61475029     -0.80084719      1.00987392
N      -1.98626845      0.02553370     -1.22812537
H       3.35768351      0.36670668      0.88832497
H       2.93195746      0.49348241     -0.81647203
H       2.05337163      1.43512967      0.38278284
H       1.18401095     -0.73843788      1.38540757
H       2.07990188     -1.62476707      0.18809534
H       0.63911973     -0.15358444     -1.53922279
H       0.07663252     -1.67943191     -0.90389624
H      -0.34539606      2.05305741     -0.50254062
H      -0.12565734      1.52684725      1.16798665
H      -1.74470399      1.90315047      0.56374408
H      -1.80811744     -1.83059714      0.69852368
H      -2.56438255     -0.35447612      1.30448192
H      -0.96407316     -0.83394553      1.88382230
H      -1.62269159      0.54598760     -2.02010519
H      -2.15742891     -0.91800069     -1.56104652
