12
b3lypvtz=-223852.68679206
N       3.19575705      0.24380819      0.00001419
C       2.11751654     -0.41249318     -0.00002804
N       0.83510765      0.17888668      0.00002673
C      -0.16947854     -0.59832848      0.00000486
C      -1.58210149     -0.07793960      0.00006322
N      -1.69025690      1.26841329     -0.00002114
O      -2.51476739     -0.86182096      0.00002450
H       2.99093591      1.24571372      0.00008365
H       2.15514794     -1.50566516     -0.00009673
H      -0.10138575     -1.68978304     -0.00000724
H      -2.60213636      1.68997914     -0.00005079
H      -0.85999866      1.83597441      0.00000581
