16
b3lypvtz=-202065.01464248
C       2.32009976     -1.00652684      0.17248279
C       1.32093120     -0.12706557     -0.02857301
N       1.47792131      1.22451534     -0.24815657
N      -0.00631816     -0.59874722     -0.11293969
C      -1.19525849      0.07806137      0.02980893
C      -2.40128415     -0.82985321     -0.07686317
N      -1.24204123      1.34312559      0.22366565
H       3.34812924     -0.67956161      0.18477833
H       2.12204445     -2.06001629      0.29762760
H       2.35270618      1.59746336      0.08003754
H       0.65701299      1.77940462     -0.02689002
H      -0.07476453     -1.59979472     -0.16171479
H      -2.37188250     -1.60550891      0.69160628
H      -2.42588883     -1.32541165     -1.04944876
H      -3.31901578     -0.25985210      0.04505633
H      -2.20074943      1.66477184      0.28829457
