17
b3lypvtz=-212873.17244682
C      -2.94971700     -0.37123139     -0.27076032
N      -1.79399593      0.27892614      0.34422124
N      -0.64355968     -0.59037697      0.22491086
C       0.43181760      0.06236475     -0.06498949
N       0.54161951      1.43542255     -0.09331949
N       1.57436633     -0.66182878     -0.36622857
C       2.86896519     -0.26308416      0.17704492
H      -2.82643186     -0.38156752     -1.35363834
H      -3.84437164      0.20660069     -0.03233534
H      -3.08438421     -1.40536229      0.06721387
H      -1.97749897      0.35451413      1.34065480
H       1.17800484      1.80211140     -0.78387128
H      -0.38264631      1.85250548     -0.10999597
H       1.37555680     -1.64610371     -0.25537618
H       3.62021435     -0.96945839     -0.17270075
H       2.89232142     -0.24035592      1.27281312
H       3.15629456      0.72236500     -0.18625609
