10
b3lypvtz=-202132.60317336
C       3.32604242      0.05042105      1.20494451
C       2.18427946     -0.02693605      0.82715195
C       0.89533898     -0.11377178      0.40167338
C      -0.25047951     -0.19029522      0.02499143
C      -1.58253739     -0.29953798     -0.48959413
N      -1.90491639     -0.61259766     -1.67677461
O      -2.52787151     -0.02866996      0.43627848
H       4.33176908      0.11884998      1.53822471
H      -1.09005993     -0.78697979     -2.25589878
H      -3.38156521     -0.13030438     -0.01099696
