17
b3lypvtz=-217689.82707362
C      -3.22782992      0.34184428      0.29690472
C      -2.15657726     -0.51327714     -0.39345337
C      -0.78232925      0.07319868     -0.27265753
C       0.25455723     -0.52486298      0.30254231
C       1.63895925      0.04454136      0.41794801
O       1.69009107      1.29526769     -0.23021244
O       2.61319892     -0.84889020     -0.09841016
H      -4.22034070     -0.08995092      0.15939619
H      -3.24487351      1.35477672     -0.10993385
H      -3.03606335      0.41783048      1.36820881
H      -2.16625177     -1.52578986      0.01681946
H      -2.41245746     -0.60322009     -1.45490248
H      -0.64251572      1.06923400     -0.68017540
H       0.15241393     -1.51701090      0.73101087
H       1.92073379      0.14895663      1.47189149
H       2.58784378      1.62980558     -0.13614340
H       2.34240697     -1.08345233     -0.99466423
