13
b3lypvtz=-213739.28668155
N      -3.38724762      0.08897193     -0.06516176
C      -2.21963679     -0.38866497     -0.00441114
N      -1.04544318      0.38986600      0.01402278
C       0.06090608     -0.23600878      0.04877555
C       1.34761501      0.47862579      0.05304663
C       2.50213259     -0.07635038     -0.67902183
O       2.42174934     -0.19094097      0.73288940
H      -3.33618653      1.10984592     -0.09850434
H      -2.09207739     -1.47597698      0.03883841
H       0.12429119     -1.33167567      0.08083193
H       1.28964464      1.54989228      0.20773479
H       2.39294647     -1.00454983     -1.23118412
H       3.25054819      0.61289366     -1.05593131
