16
b3lypvtz=-181113.24193938
C       3.28731287      0.19335250      0.06601145
C       1.88591685     -0.02943475     -0.26237108
C       0.73024194     -0.21734378     -0.53758573
C      -0.66392163     -0.43629561     -0.85970890
C      -1.65749746     -0.85189201      0.26413955
N      -2.67088137      0.03523263     -0.35383236
C      -1.60771096      0.78457970     -1.06359598
H       3.47917595      0.00439066      1.12446897
H       3.93827166     -0.46500509     -0.51315441
H       3.58267023      1.22321142     -0.14588880
H      -0.75699147     -1.11935127     -1.70504147
H      -1.93776411     -1.90476532      0.31555348
H      -1.30283946     -0.52182094      1.24564403
H      -3.22205059      0.58022597      0.29688930
H      -1.23639856      1.66372292     -0.52749645
H      -1.84753388      1.06129297     -2.09103160
