18
b3lypvtz=-205226.53769311
C      -2.77687220     -0.76087914      0.19326284
C      -1.36597948     -0.76715474     -0.39428626
C      -0.41507348      0.27612776      0.21375922
C      -0.86164689      1.71477480     -0.05344808
N       0.91417172      0.08555905     -0.36083585
C       1.86915322     -0.20666774      0.39995891
O       3.12945470     -0.40054931     -0.04394546
H      -3.30576182      0.16950956     -0.01666046
H      -2.75703958     -0.89440327      1.27762798
H      -3.37092230     -1.57409503     -0.22629637
H      -1.40453162     -0.60735287     -1.47517773
H      -0.91802357     -1.75294113     -0.24709661
H      -0.38954367      0.11728832      1.30353167
H      -0.90316053      1.90295249     -1.12781266
H      -1.84524924      1.91184654      0.37327421
H      -0.15613892      2.42128485      0.38500563
H       1.81457335     -0.33855147      1.48268150
H       3.11044629     -0.26967767     -1.00366947
