15
b3lypvtz=-193611.6184431
C      -1.14703041     -1.71995573      1.05301094
C      -0.45611868     -1.19530396      0.04206729
C      -0.11132004      0.22531095     -0.12666332
C       1.21402856      0.60622462     -0.60928101
C       2.25536612     -0.21602153     -0.75980689
C      -1.05013209      1.15772526      0.12338758
O      -0.79535738      2.49461413      0.03897638
H      -1.39885339     -2.77204614      1.07313157
H      -1.47378105     -1.12140991      1.89433099
H      -0.10237665     -1.85730975     -0.74318931
H       1.33482240      1.65335835     -0.85991229
H       2.20727051     -1.26590566     -0.50182139
H       3.19969845      0.14832437     -1.14037179
H      -2.05784487      0.87771450      0.40542864
H      -1.61837149      2.98468048      0.11061260
