14
b3lypvtz=-227016.44265317
C      -0.43263171      1.73012459     -2.11618468
N      -0.10983976      1.22030702     -0.79985957
C      -0.10117796     -0.11448726     -0.50169475
O      -0.38589052     -0.97419315     -1.32760056
C       0.27482586     -0.42177996      0.89480884
C       0.31116163     -1.69252973      1.29466585
O       0.64510374     -2.04820560      2.55737346
H       0.42555752      2.22687918     -2.57519427
H      -1.26349677      2.43722873     -2.07207386
H      -0.72011557      0.88387055     -2.73420441
H       0.15928219      1.86981261     -0.08198565
H       0.51797740      0.37418346      1.58758818
H       0.06622218     -2.48629304      0.59796114
H       0.61302178     -3.00491740      2.64460218
