12
b3lypvtz=-223845.55983439
C       0.42260610      1.12198444     -0.43873031
C       0.84667251     -0.14602688     -0.39062533
O      -0.22865799     -0.99243672     -0.19412044
C      -1.38964859     -0.22147163     -0.13980939
N      -2.57308769     -0.64803141     -0.00741355
N      -0.97556577      1.07901106     -0.25458133
N       2.06349799     -0.78074395     -0.56712603
H       0.96880710      2.04043019     -0.53807508
H      -2.59971696     -1.66025109      0.03599486
H      -1.62403243      1.81600015     -0.45953531
H       2.25553594     -1.47463947      0.14484437
H       2.83358979     -0.13382471     -0.65048995
