16
b3lypvtz=-204439.03509678
C       3.21189472      0.32074740     -0.03608820
N       2.27162266     -0.78020189     -0.05933675
C       1.01153425     -0.59918965     -0.02273766
C       0.24995761      0.65004661      0.01782027
C      -1.08088373      0.73247585      0.13282828
C      -2.06417186     -0.38515989      0.29162812
O      -3.27959573      0.02510691     -0.33316998
H       3.80549071      0.28609652     -0.95284003
H       2.78881184      1.32434439      0.06574555
H       3.90920505      0.15706276      0.78859882
H       0.41623641     -1.51249390     -0.03275473
H       0.79958713      1.57830165     -0.05894442
H      -1.54533277      1.71310697      0.14384697
H      -2.22615836     -0.56808519      1.36338247
H      -1.69376616     -1.31580974     -0.14716339
H      -3.94462577     -0.65289481     -0.18445732
