20
b3lypvtz=-205969.07419045
C      -2.26561329     -0.71803137     -0.60379567
O      -1.54645324      0.14833849      0.24284454
C      -0.25465406      0.52429516     -0.22427344
C       0.09394119      1.81599261      0.50142033
C       0.79136303     -0.59956470     -0.03357520
C       2.03434748     -0.36451265     -0.90467523
N       1.08469825     -0.80293601      1.38851010
H      -2.35787649     -0.30616947     -1.61775137
H      -3.26200251     -0.82596748     -0.17745540
H      -1.81476595     -1.71467246     -0.67618581
H      -0.32069222      0.72413038     -1.30388376
H       0.06588426      1.65283022      1.57850231
H      -0.63689318      2.58590474      0.25714379
H       1.08239247      2.18247622      0.22104188
H       0.31950352     -1.52204922     -0.38033710
H       1.77731850     -0.26150702     -1.96177920
H       2.72641745     -1.20318267     -0.80995344
H       2.56855845      0.53870472     -0.60087773
H       1.70090603     -0.07654310      1.73575018
H       1.57017131     -1.68121241      1.52444222
