13
b3lypvtz=-213789.72000702
C       2.39349168     -0.55133181      0.04850049
C       1.12815084     -0.12784394     -0.02690241
N       0.65978868      1.18255023     -0.14200748
C      -0.78159793      1.23459526      0.05869464
C      -1.19190253     -0.23563802      0.01024486
O      -2.30949379     -0.69303908      0.01026604
N      -0.01273792     -0.93607649     -0.02567419
H       2.62228056     -1.60203562      0.12818232
H       3.21122348      0.15139509      0.01649043
H       1.22828284      1.89594785      0.28102098
H      -1.29925779      1.79161920     -0.72405130
H      -1.07781918      1.65220473      1.02693279
H       0.01653905     -1.94060640     -0.06929817
