12
b3lypvtz=-223843.35623447
C       1.82976679     -0.94137955      0.00000401
N       0.43789106     -0.52954097     -0.00001138
C      -0.70145519     -1.30280697     -0.00005603
N      -1.76949081     -0.56313370      0.00003660
N      -1.35325347      0.76277930     -0.00014368
C      -0.05324411      0.73706825      0.00002765
O       0.78386526      1.78680123      0.00000943
H       2.34102879     -0.56693519     -0.88631157
H       1.87129581     -2.02783726     -0.00008417
H       2.34096353     -0.56707892      0.88641839
H      -0.67602208     -2.37994524     -0.00000108
H       0.23687841      2.58315304      0.00004682
