10
b3lypvtz=-248948.73741949
N       2.76321935     -0.53870923     -0.19352275
N       1.86575063      0.27622703     -0.46104981
C       0.55501192     -0.22308250     -0.22118283
F       0.47748932     -1.47461621      0.24950963
N      -0.43876799      0.51164770     -0.45474622
C      -1.74811900      0.04631183     -0.22717583
N      -2.76938667      0.75798143     -0.45159404
H       3.65169921     -0.06438347     -0.40669209
H      -1.87657632     -0.96412319      0.15601520
H      -2.48012045      1.67294663     -0.80566126
