17
b3lypvtz=-171089.19370606
C      -2.45220989     -0.09645982     -0.00000277
C      -0.95053812     -0.08579121     -0.00000064
C      -0.22711837     -1.20367172     -0.00000037
C       1.27342035     -1.24649508      0.00000143
C       1.90131862      0.11546347     -0.00000227
C       1.19641632      1.24023857     -0.00000226
C      -0.30368648      1.27655324      0.00000124
H      -2.84851341     -1.11169220     -0.00000328
H      -2.84920710      0.42477340      0.87685697
H      -2.84920445      0.42477323     -0.87686382
H      -0.73766771     -2.16178514     -0.00000170
H       1.63031756     -1.81899573      0.86698644
H       1.63031945     -1.81900147     -0.86697890
H       2.98490376      0.15918514     -0.00000505
H       1.70878820      2.19621416     -0.00000513
H      -0.66195985      1.84960729     -0.86679142
H      -0.66195589      1.84960287      0.86679854
