13
b3lypvtz=-213757.36499731
N       1.63527683     -1.30234583     -0.03297020
C       0.52269472     -0.70507961      0.01898817
C      -0.89921645     -1.21416712      0.09925655
O      -1.72539054     -0.10601632     -0.24716837
C      -1.05484285      1.10775825      0.11149554
C       0.41774208      0.79569241      0.02011333
N       1.35518824      1.63859665     -0.03795613
H       1.53349570     -2.31764926     -0.02172809
H      -1.11481978     -1.56683293      1.11851718
H      -1.09996825     -2.02808701     -0.59777914
H      -1.36336770      1.89221254     -0.57653238
H      -1.31815185      1.41286698      1.13318454
H       2.25086586      1.14373625     -0.09229500
