19
b3lypvtz=-192737.47423946
C       3.19352342      0.77634139     -0.00000584
C       2.53813690     -0.57790309     -0.00000414
N       1.30981656     -0.87783313      0.00000276
C       0.28637541      0.16757860      0.00000755
C      -1.10759877     -0.45289958     -0.00000214
C      -2.23155518      0.58609790      0.00000464
N      -3.59758662      0.05606053     -0.00000412
H       2.48475278      1.60063875     -0.00000304
H       3.84129165      0.87223449      0.87559903
H       3.84128698      0.87223584     -0.87561396
H       3.23504353     -1.41969037     -0.00000658
H       0.39923041      0.81384595      0.87897375
H       0.39923545      0.81386248     -0.87894583
H      -1.20398498     -1.10189848     -0.87546691
H      -1.20398952     -1.10191508      0.87544977
H      -2.13026469      1.23752620     -0.87330930
H      -2.13026938      1.23750946      0.87333161
H      -3.74198428     -0.53553724     -0.81094817
H      -3.74198869     -0.53555264      0.81092792
