16
b3lypvtz=-181063.23385825
C       1.19891817      0.03159212     -0.18645922
C       0.58402016      1.04008113      0.40367281
C       1.06374078      2.21490974      1.33138323
C       0.01320125      3.04370365      0.50670096
C      -0.75269551      1.78024454      0.32825688
N      -1.72986479      2.52259488     -0.54112910
C      -1.38502457      3.73183745      0.33612581
H       0.68900542     -0.58891171     -0.91180262
H       2.23395540     -0.20299018      0.02782143
H       0.79556912      2.04490393      2.37397972
H       2.10830814      2.51075325      1.25851195
H       0.50707162      3.23702642     -0.44711435
H      -1.25143749      1.54780531      1.28311748
H      -2.68995250      2.20628781     -0.43703414
H      -1.41907169      4.68524782     -0.18816458
H      -1.97864351      3.77031383      1.25383375
