14
b3lypvtz=-201294.98602009
C       2.26682834     -1.29262594      0.02982674
C       1.89632396     -0.01900942     -0.03299211
C       0.48399835      0.42148797     -0.00816270
N       0.31435556      1.77872849     -0.06558930
N      -0.46492379     -0.44796311      0.06484220
C      -1.77971721     -0.05198267      0.24995191
N      -2.81183747     -0.66751065     -0.16538429
H       3.31041664     -1.57428689      0.00865900
H       1.52418412     -2.07569155      0.10050481
H       2.64612263      0.76170710     -0.10645712
H       1.10530755      2.37110819     -0.24258803
H      -0.58982448      2.16690972     -0.26493271
H      -1.94803589      0.84245437      0.86233625
H      -2.51986730     -1.48852860     -0.70121465
