17
b3lypvtz=-191993.6763163
C      -1.34853321      1.30995453      0.52563614
C      -1.17048282     -0.08762516      0.00017136
C      -2.44814011     -0.85673440     -0.19842570
C       0.01264254     -0.65283300     -0.26353957
C       1.35370119     -0.02209174     -0.14831572
N       1.70900717      1.11774860     -0.61197932
N       2.27587546     -0.78148424      0.53997319
H      -2.00236629      1.29673412      1.40213395
H      -1.84493172      1.94124903     -0.21796252
H      -0.40742134      1.78036876      0.79872043
H      -2.99272718     -0.95588348      0.74505445
H      -2.26919461     -1.85369172     -0.59907428
H      -3.11376896     -0.32593516     -0.88569747
H       0.02190495     -1.69099994     -0.58574423
H       0.93461678      1.56122159     -1.09386846
H       3.23895062     -0.50902020      0.42904220
H       2.09968452     -1.76184359      0.66532355
