17
b3lypvtz=-191967.0759136
C      -1.58396753     -0.50649268      0.58537815
C      -0.42027966     -0.06398002     -0.29211473
C      -0.29184780      1.48807642     -0.42477431
N       0.79063230      1.42600319      0.57811822
C       0.92017937      0.03784758      0.46588641
C       1.86802485     -0.83110621      0.80557097
N      -0.46585940     -0.77228925     -1.55850365
H      -1.60369900      0.05887637      1.51614085
H      -2.52780032     -0.35910897      0.05788499
H      -1.49108780     -1.56508641      0.83872152
H       0.03588875      1.78172117     -1.42547607
H      -1.15355610      2.08846874     -0.12934142
H       1.58541817      2.04802109      0.56384270
H       1.72768733     -1.88573790      0.61511009
H       2.79173392     -0.52456794      1.27802022
H       0.40162119     -0.65308189     -2.06890784
H      -0.58308826     -1.76756330     -1.40555610
