14
b3lypvtz=-227020.61651361
C       2.64135205     -0.53277258      0.51121814
C       1.71668272      0.08718613     -0.53323469
N       0.32569835     -0.29798462     -0.34932288
C      -0.65390277      0.55926177     -0.00601373
O      -0.54988772      1.76149215      0.17483188
C      -2.02191741     -0.11120094      0.15560299
O      -2.21085371     -1.29012972      0.00534729
H       3.67312742     -0.22996601      0.32667534
H       2.36396109     -0.21100951      1.51517253
H       2.60267404     -1.62329529      0.47888541
H       1.74471369      1.17362392     -0.47786117
H       2.03359599     -0.20233017     -1.53818203
H       0.05326185     -1.26614849     -0.43945645
H      -2.82004059      0.60165035      0.42736737
