12
b3lypvtz=-226223.49968776
C       1.43953448      0.12844959     -0.41290482
C       0.05568548     -0.02805948      0.08271419
N       1.16444298     -0.04916226      1.01659438
C      -1.02600128     -1.07592370     -0.11599790
O      -2.01429675      0.01509631     -0.22339640
C      -1.05922207      0.98029244      0.00069529
O      -1.19996029      2.15664201      0.09632757
H       1.92464644     -0.71298322     -0.89118929
H       1.72644248      1.10766297     -0.77716125
H       1.21952769      0.83561189      1.51338698
H      -0.99438907     -1.65463239     -1.03638113
H      -1.23641009     -1.70299416      0.74731240
