13
b3lypvtz=-213768.89247185
N      -1.53633073     -1.04110123     -0.39512444
C      -0.44129414     -0.30275118      0.21987022
C      -0.44762833      1.20437492     -0.07262084
N       0.93066815      1.61009415     -0.40926730
C       1.68208371      0.58623273     -0.48259597
C       0.97677377     -0.70623992     -0.21654095
O       1.40772296     -1.82469784     -0.34993506
H      -1.50131120     -0.94346045     -1.40478093
H      -1.42805483     -2.03129924     -0.20147170
H      -0.49133863     -0.46714074      1.30082879
H      -0.79506800      1.81482434      0.76047468
H      -1.08914875      1.44596994     -0.92337864
H       2.73312601      0.65519451     -0.74425786
