18
b3lypvtz=-181899.97578012
C      -2.52356803     -0.20549539      0.02757177
C      -1.27573343      0.67806517      0.01564000
C      -0.19726222      0.21845504      0.98745982
C       1.18307181      0.92609425      0.84114901
C       1.67979551     -0.39273238      0.26944764
C       2.77759557     -0.79154914     -0.36650789
N       0.49763315     -1.04526041      0.64433618
H      -2.97690889     -0.23469285      1.02068377
H      -3.27531848      0.16439115     -0.67078549
H      -2.29262086     -1.23366437     -0.26022075
H      -1.55326330      1.70388222      0.27817454
H      -0.85310501      0.71675033     -0.99309174
H      -0.59896270      0.20097951      2.00461137
H       1.20241603      1.77328688      0.15737729
H       1.64713216      1.21066262      1.78443294
H       2.89303226     -1.80661160     -0.72215106
H       3.58961375     -0.10041739     -0.53698361
H       0.07645271     -1.78214364      0.09691819
