14
b3lypvtz=-224602.40160246
C       2.48722480     -0.91335382      0.00001154
N       1.03722270     -0.80766286      0.00001962
C       0.50751436      0.33074846      0.00001086
O       1.22753700      1.49335436      0.00000900
N      -0.87804502      0.51101602     -0.00000031
C      -1.79748810     -0.53097083     -0.00001499
N      -3.06173853     -0.43498090      0.00000172
H       2.93371526     -0.44384816      0.88172258
H       2.93370695     -0.44384581     -0.88170255
H       2.76019683     -1.96685375      0.00000956
H       0.66418935      2.27398205     -0.00003818
H      -1.24830010      1.44760916      0.00005689
H      -1.31319364     -1.50168523     -0.00005284
H      -3.38137485      0.53573830      0.00003610
