18
b3lypvtz=-205210.47779294
C      -2.01877626      1.32953023      0.14950891
C      -1.31603387     -0.00620096      0.33014978
C      -1.97539952     -1.12174952     -0.47650014
O       0.04645643      0.19651480     -0.06493424
C       0.96470016     -0.76788601      0.37910469
C       2.37197819     -0.31684416      0.08322706
N       2.72598666      0.76263881     -0.46663986
H      -1.99782031      1.62888399     -0.89964130
H      -3.05996208      1.26084771      0.46686655
H      -1.52624105      2.10379892      0.73707892
H      -1.32570912     -0.27726780      1.39480796
H      -3.01694602     -1.24260161     -0.17429884
H      -1.95085116     -0.88127151     -1.54066684
H      -1.47700745     -2.08029543     -0.32929567
H       0.87019734     -0.93568255      1.46361480
H       0.80790962     -1.74397565     -0.10249453
H       3.14482716     -1.02688407      0.38936352
H       1.89693530      1.31713983     -0.69437275
