17
b3lypvtz=-217699.38391113
C      -2.18457048     -0.53607017      0.34135447
C      -1.09261764      0.23147074     -0.38072473
C      -0.33768431      1.25607318      0.47845600
C       1.09620925      1.16579364     -0.05550254
C       1.19787436     -0.31210855     -0.40623711
O       1.55486423     -1.01687850      0.77096246
O      -0.08142045     -0.68583244     -0.87103539
H      -2.63282952     -1.28012947     -0.31758940
H      -2.97259153      0.14329328      0.67369385
H      -1.77507712     -1.04761156      1.21347140
H      -1.51686434      0.72132423     -1.26372667
H      -0.76538113      2.25420218      0.39441265
H      -0.36508680      0.96115748      1.52799430
H       1.85498635      1.46399555      0.66446866
H       1.21754442      1.76225214     -0.96108039
H       1.90470528     -0.54033647     -1.20846809
H       1.46840042     -1.95755429      0.58294051
