17
b3lypvtz=-191969.89944267
C       1.65487246     -1.03548612     -0.34591149
C       0.62311068      0.05928466     -0.54556527
C       0.65603029      1.29508934      0.40497655
C      -0.85269451      1.20532115      0.48595901
N      -1.71934923      2.05545562      0.82143304
C      -0.86770014     -0.20276954     -0.12348174
N      -1.00037677     -1.21233351      0.92497957
H       1.48301259     -1.87720713     -1.02173173
H       2.65886584     -0.65635857     -0.54741853
H       1.63204633     -1.41074745      0.67693585
H       0.63102734      0.39686082     -1.58350740
H       1.12029367      1.05934342      1.36504135
H       1.07094253      2.22963637      0.02967483
H      -2.66508821      1.68857955      0.69318974
H      -1.56520445     -0.32957564     -0.96191101
H      -0.96728533     -2.14612698      0.53232556
H      -1.89250308     -1.11896596      1.39596081
