10
b3lypvtz=-277308.065141
N      -1.97174346      0.00607288      0.22342156
C      -0.79888716      0.06915452     -0.43236959
F      -1.00004569      0.17857720     -1.75621633
N       0.33682445      0.02310024      0.12205804
C       1.53386766      0.20936650     -0.53940997
N       2.64224303     -0.32409162     -0.30116685
F       1.48113009      1.13986286     -1.51761463
H      -1.95293689     -0.17331413      1.21100196
H      -2.82005901     -0.14522914     -0.29146531
H       2.54980699     -0.98339931      0.46566112
