17
b3lypvtz=-191967.06245352
C      -3.34486835     -0.29603076     -0.36345797
C      -2.22006890     -0.40192584      0.33147874
C      -1.11291738      0.60844155      0.31985483
N       0.15542736     -0.01895241     -0.05224589
C       1.29911056      0.87404606     -0.04387241
C       2.61530272      0.13152035     -0.11250836
N       2.79391047     -1.11461425     -0.00566581
H      -3.53755440      0.55600053     -1.00520574
H      -4.11748289     -1.05164254     -0.31183096
H      -2.04817961     -1.27085605      0.95892881
H      -1.38694177      1.45117080     -0.33331954
H      -0.98706875      1.01862796      1.32773006
H       0.06039361     -0.45137258     -0.96416561
H       1.28795836      1.44846752      0.88954747
H       1.28321677      1.62645864     -0.85026040
H       3.49117156      0.76663875     -0.26770586
H       1.89101764     -1.57172171      0.15457963
