16
b3lypvtz=-209457.14901718
C      -3.44296203     -0.33502393      0.56274917
C      -2.47505821      0.41831309     -0.36101840
C      -1.12173691     -0.21811385     -0.43371029
C       0.02733873      0.36921818     -0.08497229
C       1.32819006     -0.26633064     -0.15494330
C       2.45451561      0.34436371      0.19619710
F       3.64963939     -0.27295627      0.12060035
H      -3.07229116     -0.34934301      1.58868354
H      -3.56834203     -1.37057521      0.24033766
H      -4.42758694      0.13525218      0.56306843
H      -2.37592800      1.45456687     -0.02899280
H      -2.91053396      0.45428348     -1.36604860
H      -1.09426022     -1.24502876     -0.79185692
H       0.00310966      1.39437138      0.27593320
H       1.38786592     -1.28910467     -0.51036475
H       2.53953008      1.35796846      0.56526390
