14
b3lypvtz=-203686.46631682
C       2.18849276     -0.14453245     -0.70164518
C       0.87919236     -0.71763688     -0.22016715
C       0.46029966     -0.61374960      1.21984393
C      -0.26007987      0.21213258      0.18811325
O      -0.03530460      1.59298646      0.26370994
C      -1.60558974     -0.15767690     -0.18969383
N      -2.67099233     -0.44752212     -0.51868021
H       2.41798605      0.79536076     -0.20182074
H       3.00299915     -0.84258279     -0.50068215
H       2.16711789      0.03784694     -1.77787553
H       0.55497316     -1.61491680     -0.73263286
H      -0.07083805     -1.43441998      1.67893475
H       1.09103964     -0.03813178      1.88379964
H      -0.13099109      1.97363057     -0.61730486
