15
b3lypvtz=-240234.77279309
C      -0.73714910      1.80680712     -0.21777005
C      -0.12351925      0.42564065      0.04547636
O      -0.14550967      0.12076529      1.43033466
C      -0.93322700     -0.62258742     -0.69979964
O      -1.57215091     -1.46906318     -0.12738311
C       1.33983193      0.37611979     -0.42201792
O       1.93560928     -0.87158633     -0.13777955
H      -1.76667339      1.83880124      0.13806069
H      -0.72506551      2.05754360     -1.28024154
H      -0.16544877      2.56092934      0.32250087
H      -0.78999712     -0.59713136      1.54013088
H      -0.92412557     -0.55368343     -1.80329414
H       1.40042767      0.52203153     -1.50203539
H       1.87638396      1.20151799      0.06117427
H       1.77549546     -1.04230583      0.79888862
