16
b3lypvtz=-227764.5793902
C      -2.05571730      0.05847065     -0.42957443
C      -0.96614460      0.17424931      0.64672317
C       0.43411145      0.17690551      0.10590728
C       1.34358680     -0.77785595      0.35034122
O       1.11098609     -1.87566878      1.10329260
O       2.60462431     -0.73840855     -0.13890967
N       0.92220637      1.25076705     -0.72953557
H      -1.96383271     -0.88121721     -0.97677843
H      -3.05203780      0.09608237      0.01495713
H      -1.99256167      0.87489584     -1.15284418
H      -1.07039741     -0.64723791      1.35642629
H      -1.13581959      1.09638226      1.21822659
H       1.92900222     -2.38446478      1.13632015
H       2.62898213      0.09629049     -0.64608945
H       0.86143334      2.14984958     -0.26240960
H       0.40157836      1.33096008     -1.59605312
