16
b3lypvtz=-227750.21163208
N      -2.63944390      0.37929246     -0.13474866
C      -1.56176304     -0.50454721      0.31044460
C      -0.24479988     -0.12419261     -0.34044853
O       0.30569598      1.03392040      0.24165403
C       1.69812496      0.94933313     -0.03054284
C       1.98311422     -0.55235920      0.09767535
O       0.71224558     -1.16274291     -0.14120647
H      -3.42015975      0.33852693      0.50681506
H      -2.98987202      0.09309085     -1.04087338
H      -1.72976019     -1.56807394      0.10129784
H      -1.43386918     -0.39649595      1.38788864
H      -0.37826501      0.03697857     -1.42345040
H       2.23026353      1.56366078      0.69261466
H       1.91633269      1.31267595     -1.04207819
H       2.71268096     -0.90674980     -0.63351637
H       2.32362305     -0.82194046      1.09999267
