23
b3lypvtz=-173374.53244445
C       3.01936284      0.75573513     -0.14468202
C       2.33023020     -0.53559370      0.30006010
C       0.91739713     -0.73595155     -0.26499940
C      -0.11852644      0.26706607      0.25029672
C      -1.53346941      0.10592440     -0.33131164
C      -2.18504393     -1.22518388      0.05850313
C      -2.42367045      1.27989086      0.08898952
H       3.08150778      0.81113816     -1.23430042
H       4.03649342      0.81197184      0.24698465
H       2.48812725      1.64350396      0.20129046
H       2.94861592     -1.38579277     -0.00102401
H       2.28674276     -0.56749618      1.39358408
H       0.95873788     -0.68109811     -1.35902222
H       0.59315968     -1.75114700     -0.02412710
H      -0.17549774      0.19623759      1.34354628
H       0.22319934      1.28228742      0.03119950
H      -1.44540872      0.12938301     -1.42406493
H      -1.61324668     -2.08363431     -0.29467454
H      -3.18942471     -1.30506841     -0.36207883
H      -2.27462320     -1.30785022      1.14545671
H      -1.99772591      2.23515703     -0.22421340
H      -3.42072209      1.19852187     -0.34847441
H      -2.54112592      1.30946681      1.17574376
