15
b3lypvtz=-216946.6102556
C      -0.41017328      1.50002239     -0.39168404
C      -0.11362807      0.03574264     -0.14267077
C      -1.33350851     -0.85506901     -0.25402371
C       0.85033252     -0.27380587      1.02350389
C       1.80834739     -0.71134772     -0.07327073
O       2.91199429     -1.14644231     -0.15312160
O       0.94157948     -0.43279079     -1.09386808
H      -1.11325834      1.87550757      0.35401813
H       0.50001978      2.09748383     -0.34028304
H      -0.85403110      1.63648873     -1.37849399
H      -2.07438527     -0.57651693      0.49759977
H      -1.06836864     -1.90188906     -0.10646988
H      -1.79135912     -0.75342282     -1.23861249
H       0.55005756     -1.07499113      1.69606341
H       1.19658133      0.58093047      1.60131314
