12
b3lypvtz=-223836.05327294
C      -1.62426408     -0.60638348     -0.22486563
N      -0.21621212     -0.34599434     -0.05475749
C       0.38094164      0.88685150      0.01743740
N      -0.16615757      2.02340738     -0.04121741
O       1.73946952      0.59556218      0.17205321
C       1.82358565     -0.76495404      0.17410622
N       0.70580153     -1.36487537      0.04290001
H      -2.00165386     -1.21295487      0.59868134
H      -2.12974622      0.35569517     -0.23216113
H      -1.81085277     -1.12373289     -1.16684412
H       0.50670953      2.77603848      0.04120933
H       2.79237876     -1.21865973      0.28215043
