14
b3lypvtz=-226989.68987235
C      -2.02086252     -1.32384893      0.67353555
C      -1.18459323     -0.37027985      0.25950484
O      -1.63281065      0.86180775     -0.09153463
N       0.20431014     -0.55259738      0.08228525
C       1.08535823      0.52663128      0.41826423
C       1.86338592      1.04057320     -0.54023339
O       1.87624194      0.62157997     -1.81917292
H      -3.08247442     -1.14144902      0.69967582
H      -1.64962576     -2.29484616      0.96183595
H      -0.87463286      1.42949680     -0.28540416
H       0.50099616     -1.45038803      0.44007411
H       1.13016176      0.90525193      1.43329738
H       2.56206136      1.84411829     -0.35181731
H       1.22248392     -0.09604985     -1.88041072
