13
b3lypvtz=-213763.45161331
C       0.07579837      0.24993481      0.32817606
C       1.17360004     -0.22212080     -0.27806562
N       2.47659091      0.11781863      0.00029314
C      -1.28977270     -0.27057222      0.00864024
C      -2.20297348      0.82147227     -0.37809454
N      -2.88263015      1.68530074     -0.71618166
O      -1.91209662     -0.94831629      1.10696042
H       0.13991622      1.02233118      1.08615832
H       1.07499060     -0.98547873     -1.04303983
H       2.63241985      0.96059483      0.52949872
H       3.15513092     -0.03614829     -0.72522655
H      -1.22278814     -0.94263211     -0.85670271
H      -1.21818583     -1.45218402      1.54603124
