16
b3lypvtz=-204436.87897423
C      -1.85042395     -0.75648463      0.50189567
C      -0.68376888     -0.42470395     -0.41800715
C      -1.88733874      0.49285087     -0.30955997
O      -1.77749107      1.69838546      0.39909433
C       0.62657927     -0.02583178      0.13188394
C       1.79327206     -0.31374869     -0.45260121
N       3.05617180      0.11768536     -0.04116307
H      -1.68132414     -0.62672752      1.56237998
H      -2.50939005     -1.57286681      0.23994051
H      -0.63157226     -1.00019624     -1.33531387
H      -2.56495287      0.52980153     -1.15804419
H      -1.21860488      2.29607921     -0.10916394
H       0.61798265      0.54568272      1.05482802
H       1.81158275     -0.88503124     -1.37514334
H       3.09630893      0.45978484      0.90778370
H       3.80296937     -0.53467913     -0.22427181
