16
b3lypvtz=-202046.97990097
C       2.83993018      0.03992269     -0.04359103
C       1.38665968     -0.05812619      0.29235374
N       0.51078337      0.62745188     -0.32464140
C      -0.85300868      0.49701272     -0.03086561
N      -1.51862356      1.74652847     -0.04351917
C      -1.52269802     -0.66847549      0.07538593
N      -1.01087884     -1.98247686      0.00381151
H       3.41649387      0.34422100      0.83516134
H       3.23399460     -0.93366427     -0.35037321
H       2.99629246      0.75793489     -0.84642076
H       1.11761354     -0.72866671      1.11697448
H      -1.01325198      2.45068180      0.47750416
H      -2.46579096      1.68476561      0.30122138
H      -2.59734189     -0.62851266      0.20652237
H      -1.59841001     -2.58296140     -0.56127703
H      -0.06425377     -2.02224447     -0.35189371
