17
b3lypvtz=-191940.60078061
C      -2.37930473      0.36129814     -0.25542755
N      -1.01219015      0.05926993     -0.61230533
C      -0.34153001     -1.07074820      0.07350580
C       0.91434064     -0.20892920      0.15694011
C       2.29011237     -0.49375673     -0.28224284
N       1.95963068     -0.33591195      1.15351455
C       0.04493953      1.00072121     -0.18290047
H      -2.51850660      0.52068849      0.82818015
H      -2.70829741      1.26226030     -0.77645561
H      -3.03137804     -0.45754382     -0.56399955
H      -0.29746184     -1.99569035     -0.50455236
H      -0.74948100     -1.28334074      1.07170853
H       2.83950649      0.29765638     -0.77956798
H       2.57359214     -1.49801775     -0.57317832
H       2.25089703      0.57722858      1.48847496
H       0.39186485      1.68871907     -0.95748050
H      -0.22683395      1.57619662      0.71588642
