14
b3lypvtz=-203663.19541663
C      -3.02300035     -0.35156489     -0.19950091
C      -1.87798796     -0.14128121      0.09144157
C      -0.47836261      0.14867296      0.43212389
N       0.00114693      1.43115288     -0.14669986
C       0.44596089     -0.98599833      0.03953848
C       1.76681443     -0.85125621     -0.11892683
O       2.48267388      0.28764432     -0.01426646
H      -4.03509315     -0.54343011     -0.45582589
H      -0.43018384      0.28433971      1.52003081
H      -0.53943207      2.20371286      0.22564679
H      -0.14953702      1.42018250     -1.15063603
H       0.01114768     -1.96753689     -0.07209575
H       2.38755505     -1.70618543     -0.35858278
H       1.83219814      1.02172083      0.05007998
