16
b3lypvtz=-204430.57207731
C      -0.10606278      2.06075401      0.34938358
C      -0.18489204      0.74576476      0.25099281
C       0.83316307     -0.37936196      0.23651686
C      -0.22826881     -1.23894116     -0.51111607
C      -1.31705138     -0.19664848     -0.11756114
O      -2.08551076     -0.53949380      1.03250685
N       2.09097615     -0.12884170     -0.45538068
H      -0.98422847      2.68640921      0.24793809
H       0.83434985      2.56645902      0.53484290
H       0.96106281     -0.76433474      1.25743405
H      -0.03386664     -1.24315650     -1.58329609
H      -0.38798872     -2.25516486     -0.15171614
H      -1.96807244      0.14288085     -0.92845861
H      -2.70153677     -1.23586038      0.78195278
H       2.54981979      0.68589482     -0.06298770
H       2.72810716     -0.90635910     -0.31964452
