13
b3lypvtz=-211354.2276579
C       2.48603702     -0.35226752      0.13839271
N       1.47157124      0.63453671     -0.19717850
C       0.13574441      0.32331911     -0.06542477
C      -0.99561162      1.10932076      0.04539554
N      -2.08536075      0.29605537      0.08096197
N      -1.72211307     -0.93913994      0.00378813
N      -0.35660718     -0.93769138     -0.08421939
H       0.13380158     -1.81125440     -0.16135371
H       2.39091871     -0.74643275      1.15768073
H       2.44705690     -1.18903444     -0.56212481
H       3.46735919      0.10560379      0.03400363
H       1.68630445      1.57069786      0.10406904
H      -1.07735687      2.18057484      0.09557542
