19
b3lypvtz=-192735.68146372
C      -1.39671290      1.61827384     -0.21533208
C      -0.65742594      0.54499286      0.10793560
C       0.82748268      0.65602667      0.36957022
N       1.57355938     -0.37063367     -0.36156271
C       2.99192197     -0.40866815     -0.02754154
N      -1.13932581     -0.73432611      0.29017081
C      -2.48826370     -1.08701396     -0.08603432
H      -0.93288828      2.59013652     -0.28868639
H      -2.46266360      1.56427143     -0.37875712
H       1.15882259      1.67677852      0.13977174
H       1.01350676      0.48781235      1.43532738
H       1.46132829     -0.21251945     -1.35670985
H       3.49370166     -1.15256082     -0.64674094
H       3.50829194      0.55424122     -0.15952437
H       3.11185958     -0.70803306      1.01542417
H      -0.43265034     -1.43861360      0.13970061
H      -2.63465135     -2.15486344      0.06858189
H      -2.71566626     -0.84952729     -1.13411639
H      -3.21132069     -0.55587786      0.53729229
