15
b3lypvtz=-214490.8763773
C      -1.59146305      1.69712147      0.00033100
N      -1.78822004      0.44310906     -0.12568958
N      -0.73302066     -0.42435514     -0.16936773
C      -1.14498380     -1.79778032      0.10650300
C       0.52160380     -0.01553515      0.35485276
C       1.62356815     -0.02891085     -0.39183596
O       2.88059091      0.28027576      0.01647589
H      -2.46745940      2.33198274     -0.01267751
H      -0.61003603      2.15875812      0.08934867
H      -0.38217397     -2.48338250     -0.25752778
H      -2.08033413     -1.98384089     -0.41606607
H      -1.29901054     -1.97941080      1.17805083
H       0.54888168      0.31177007      1.39760652
H       1.59953550     -0.31611579     -1.43435822
H       2.87059158      0.52164322      0.95043117
