12
b3lypvtz=-226257.0421713
N      -2.37949649     -0.60388711     -0.00003159
C      -1.18220691     -0.20694749      0.00000246
C      -0.65626066      1.22086056      0.00001527
O       0.77352892      1.13149188     -0.00000787
C       1.21239448     -0.16538885     -0.00000387
O       2.37374823     -0.43726694     -0.00002542
C       0.02224761     -1.10642434      0.00003259
H      -3.03759316      0.17772743     -0.00005071
H      -0.97740789      1.76919038      0.88789118
H      -0.97743441      1.76921850     -0.88783300
H       0.05675931     -1.75452507     -0.87644825
H       0.05676496     -1.75444394      0.87657421
