16
b3lypvtz=-204458.13809159
C      -2.36530502      0.38925814     -0.74001462
C      -1.26091874     -0.49481352     -0.24762581
C      -0.02146397     -0.11953517      0.10925275
N       0.45914103      1.22272801     -0.02065895
C       0.97394066     -1.06837177      0.60494941
C       2.30749036     -0.91225994      0.54806333
O       2.98831823      0.13002894      0.02369443
H      -2.21546183      1.43974253     -0.48112559
H      -2.48465525      0.33658169     -1.82751352
H      -3.32217910      0.08830079     -0.30724438
H      -1.47980349     -1.55461515     -0.19600762
H      -0.21004811      1.83932511     -0.45906098
H       0.72510532      1.61173159      0.87771520
H       0.60705527     -1.99773139      1.01710366
H       2.97338986     -1.67456589      0.93197543
H       2.32529479      0.76409603     -0.31530275
