15
b3lypvtz=-191248.10163143
C       2.48660430      0.03851857      0.63473805
C       1.58933896     -0.11585294     -0.60267357
C       0.13031937     -0.09757076     -0.28043631
N      -0.59568222     -1.13588735      0.07001337
C      -1.85882662     -0.65224449      0.31730869
C      -1.90300966      0.69742381      0.11452018
N      -0.62436458      1.04239614     -0.26715627
H      -0.30707916      1.96652029     -0.50285627
H       2.28720618     -0.75927348      1.34985196
H       2.31108343      0.99156360      1.13688272
H       3.54048918     -0.00595154      0.35555047
H       1.80402321     -1.06653313     -1.09101665
H       1.81650038      0.67226771     -1.32609122
H      -2.66199925     -1.30268044      0.62050646
H      -2.69530452      1.42008199      0.19274238
