14
b3lypvtz=-227004.28535993
C      -2.26821821     -0.75547461     -0.00040245
C      -1.17330452      0.27209394      0.00041317
N      -1.30162894      1.53592747      0.00126738
C       0.24471318     -0.25922493      0.00001712
O       0.45645979     -1.45516402     -0.00032069
C       1.39849361      0.71982751      0.00000854
O       2.63321422      0.05369595     -0.00049203
H      -3.24628597     -0.27657863      0.00222411
H      -2.18030655     -1.40675554      0.87059358
H      -2.18298828     -1.40224301     -0.87506657
H      -2.28431574      1.81309265      0.00150505
H       1.29950710      1.37169031      0.87503659
H       1.29909755      1.37215586     -0.87462434
H       2.43305277     -0.89430995     -0.00048547
