19
b3lypvtz=-171842.30401415
C       3.52477366      0.00000030     -0.21184930
C       2.34022029      0.00000065      0.40345697
C       1.05673145      0.00000002     -0.27544258
C      -0.12665596      0.00000058      0.34594413
C      -1.46862842     -0.00000011     -0.32692506
C      -2.26378773      1.26471906      0.03614132
C      -2.26378701     -1.26471938      0.03614261
H       3.60021191     -0.00000036     -1.29281533
H       4.45248486      0.00000073      0.34347858
H       2.30883682      0.00000153      1.48949945
H       1.08329051     -0.00000092     -1.36264227
H      -0.14372773      0.00000151      1.43492271
H      -1.30392516     -0.00000063     -1.40872701
H      -2.44139609      1.31657270      1.11323055
H      -1.72662565      2.16704239     -0.25804033
H      -3.23567035      1.26776772     -0.46152973
H      -1.72662417     -2.16704271     -0.25803763
H      -3.23566940     -1.26776936     -0.46152889
H      -2.44139583     -1.31657174      1.11323183
