13
b3lypvtz=-211327.76102139
C      -2.27561081      0.86386767     -1.22033147
C      -1.41163345      0.48792364     -0.28312405
C      -0.24115746     -0.38928156     -0.51613083
N      -0.07980154     -1.25417798     -1.43340749
N       0.72904358     -0.24278911      0.51813966
N       1.90821247     -0.24145189      0.11051407
N       2.80979310     -0.14690818      1.08322387
H      -3.10566874      1.51675220     -0.98862320
H      -2.17802019      0.54848562     -2.25238416
H      -1.51206721      0.85729932      0.73035408
H      -0.89649111     -1.28473609     -2.04271564
H       2.50741725     -0.33865904      2.03250570
H       3.74598410     -0.37632460      0.80117946
