12
b3lypvtz=-223848.85060075
C      -1.68162157     -0.70928181     -0.89843130
O      -2.84364921     -0.46999844     -0.68592827
C      -0.56426386     -0.11695015     -0.08067286
N       0.62760256     -0.44847992     -0.43681302
C       1.72587092     -0.05313282      0.32338979
N       2.87709939      0.22379936     -0.13175996
N      -0.97336009      0.69074859      0.92345654
H      -1.33214291     -1.38008482     -1.69983655
H       1.59088279     -0.03201009      1.41109639
H       2.87019449      0.14607515     -1.15166924
H      -1.96167393      0.87125620      0.99981733
H      -0.33493859      1.27805875      1.42735115
