23
b3lypvtz=-173373.00368077
C      -2.51642552     -0.90149516      0.29401459
C      -1.33661047     -0.15365237     -0.33610486
C      -1.59295372      1.35637460     -0.31891838
C      -0.01929429     -0.57156721      0.34257161
C       1.28563606     -0.00796087     -0.26770334
C       1.77215762      1.26147792      0.44269145
C       2.39592703     -1.06546257     -0.25880159
H      -2.37295175     -1.98291254      0.24948215
H      -3.45263974     -0.66649736     -0.21619116
H      -2.63518147     -0.62587866      1.34540184
H      -1.26983328     -0.46473755     -1.38566628
H      -1.63112094      1.73613828      0.70569655
H      -2.54878217      1.58951485     -0.79266356
H      -0.82088515      1.91050032     -0.85288105
H      -0.06474064     -0.30935214      1.40622943
H       0.02340818     -1.66405615      0.30960482
H       1.08407008      0.24603093     -1.31468176
H       1.01354900      2.04304309      0.46000311
H       2.65969642      1.66925828     -0.04584104
H       2.03929169      1.03891283      1.47932939
H       2.10696219     -1.95020791     -0.82920737
H       3.32060361     -0.67549984     -0.68944056
H       2.61708628     -1.38696076      0.76267601
