13
b3lypvtz=-213773.54418075
N      -0.97124778      1.56855927      0.65396488
C      -0.04627585      0.58822690      0.27883448
C      -0.32630828     -0.62315366     -0.27688127
N      -1.54585980     -1.17039024     -0.66725857
O       0.84775036     -1.35372875     -0.41174142
C       1.84906710     -0.56809922      0.05109418
C       1.37200487      0.62164292      0.49216320
H      -1.88226580      1.39004769      0.25318302
H      -0.67055003      2.50736392      0.43446982
H      -1.84519879     -1.95101704     -0.09464379
H      -1.56839155     -1.45166641     -1.63976755
H       2.84071911     -0.98225879      0.00345336
H       1.94645643      1.42457343      0.92302966
