17
b3lypvtz=-191984.94221273
C      -2.21688168      1.09100653     -0.55724843
C      -1.53185966      0.09913997      0.00501476
C      -1.93639938     -1.34212204     -0.11635486
C      -0.29362986      0.37634086      0.82996315
N       0.87003390     -0.32418663      0.30865398
C       1.89130308      0.36508881      0.02080860
N       3.07553311     -0.18923124     -0.40185007
H      -1.90477978      2.12346524     -0.45838951
H      -3.11407340      0.90565570     -1.13497936
H      -2.81681634     -1.46025721     -0.74719315
H      -2.15854004     -1.76446450      0.86859333
H      -1.11829268     -1.93339206     -0.53045838
H      -0.13220614      1.46128442      0.89510902
H      -0.47253197      0.01465899      1.85053691
H       1.93378471      1.45594272      0.13260208
H       3.02613060     -1.15488162     -0.68781371
H       3.68723553      0.39093906     -0.95009037
