14
b3lypvtz=-180333.79106771
C      -2.78354469      1.24287510     -0.24348694
C      -1.75287479      0.63537651     -0.16299360
C      -0.49037849     -0.09604114     -0.04611431
N      -0.60332515     -1.40385243     -0.70125014
C       0.65794645      0.70673908     -0.70991147
C       1.95589892      0.07054830     -0.52187222
C       3.01282127     -0.47158214     -0.35170305
H      -3.69740230      1.77753452     -0.31920900
H      -0.25333049     -0.17144748      1.02517145
H      -1.36608043     -1.93345781     -0.29719713
H       0.25069551     -1.92929246     -0.54860062
H       0.43690215      0.79695238     -1.77541475
H       0.67720569      1.71379281     -0.28868989
H       3.95536634     -0.93824526     -0.20872833
