14
b3lypvtz=-224559.55326638
C      -2.85490253     -0.79059093      0.00030611
O      -2.42272170      0.56454176      0.00235781
C      -1.09656147      0.79591921      0.00037050
C      -0.10121576     -0.10419472     -0.00101277
N       1.20847228      0.37323422      0.00130384
N       2.07285608     -0.52902270      0.00442634
N       3.34156442     -0.04840496     -0.07303634
H      -3.94109865     -0.76365711      0.00148160
H      -2.49836628     -1.31572775      0.89021487
H      -2.50011186     -1.31238916     -0.89218174
H      -0.87568277      1.85462256     -0.00051567
H      -0.25314777     -1.17698085     -0.00488849
H       4.00225158     -0.68584226      0.34170924
H       3.43916944      0.92613067      0.19825970
