15
b3lypvtz=-214480.99238145
N       1.84582714     -0.73950863      0.38618688
C       1.00764348     -0.03752846     -0.54519946
C      -0.32926887     -0.58301850     -0.95702645
N      -0.94728699     -1.22053014      0.22738326
C      -1.04067564      0.12519663      0.89654656
C      -0.24871026      0.75830314     -0.24558346
O      -0.48703424      2.03993861     -0.72368431
H       2.24298739     -0.12338445      1.08455250
H       1.29529089     -1.44622608      0.86194006
H       1.53902692      0.39171139     -1.39034114
H      -0.58188937     -0.86687232     -1.96883037
H      -1.86848605     -1.57823271      0.00959769
H      -2.06026816      0.50982142      0.92421874
H      -0.60625058      0.15615090      1.89885885
H       0.23919433      2.61437920     -0.45851934
