15
b3lypvtz=-216887.08357112
C       2.36295915     -1.39430923     -0.19761412
C       1.65445890     -0.47105747      0.09172076
C       0.79702744      0.66757430      0.45167883
O       0.77035427      1.66230520     -0.56297396
C      -0.62311904      0.22272030      0.80620697
O      -1.22788410     -0.26098678     -0.37472435
C      -2.57844607     -0.63791765     -0.20159496
H       2.99030228     -2.20929730     -0.45963486
H       1.22292633      1.15495455      1.33210439
H       0.25904214      1.29477687     -1.29462323
H      -1.17440512      1.09030292      1.19069908
H      -0.59715057     -0.55193622      1.58269437
H      -2.67585933     -1.44990085      0.52856849
H      -3.19144285      0.20818022      0.13185082
H      -2.94423043     -0.98384986     -1.16634723
