16
b3lypvtz=-181130.92518773
C      -1.61638716     -1.00861736      0.72918342
C      -0.63890730     -0.37826061     -0.27153183
C       0.67544469     -1.12471562     -0.37787591
C       1.68355406     -0.36881345      0.04825340
N       1.30293422      0.93917434      0.48991319
C      -0.15256354      0.99961411      0.18441916
C       0.80890439      1.76510748     -0.63943499
H      -1.16785674     -1.07171674      1.72190726
H      -2.53193706     -0.41761537      0.80362302
H      -1.89399160     -2.01774116      0.42060797
H      -1.13597911     -0.32304060     -1.24603152
H       0.76001313     -2.14000305     -0.73812359
H       2.73047996     -0.63158218      0.10065262
H      -0.75450541      1.53620549      0.90794625
H       1.03013157      1.40773650     -1.63827327
H       0.90066590      2.83426824     -0.49523518
