19
b3lypvtz=-195145.4264277
C       1.58937391     -1.71587729      0.21980983
C       1.52314312     -0.27325821     -0.18668517
C       0.59333424      0.63737506      0.12266855
C       0.71749103      2.05922933     -0.36327310
C      -0.63781635      0.34238451      0.94856251
C      -1.88552747      0.09620067      0.08770117
O      -1.75816726     -1.04424825     -0.74983888
H       2.46154375     -1.89735120      0.85547034
H       1.71049403     -2.35828092     -0.65673735
H       0.70288937     -2.05345914      0.75129477
H       2.36076806      0.06403983     -0.79221229
H       0.80452694      2.75037797      0.48071449
H       1.58986199      2.19256313     -1.00238925
H      -0.16514341      2.37173801     -0.92851075
H      -0.84374910      1.19206623      1.60776993
H      -0.48633357     -0.52692562      1.58776054
H      -2.74237163     -0.10081520      0.73264217
H      -2.11963377      0.98900204     -0.50539361
H      -0.95979785     -0.92964694     -1.27791388
