12
b3lypvtz=-223821.54920721
C      -1.86987520     -0.87653890      0.00002351
N      -0.47717524     -0.49099143      0.00002423
C       0.62911942     -1.29099840     -0.00000489
N       1.73441036     -0.64058746     -0.00007731
O       1.34539248      0.72906244     -0.00002044
C      -0.01954722      0.82692768     -0.00002887
N      -0.61613915      1.93968343     -0.00003926
H      -2.37602095     -0.49230983      0.88752567
H      -2.37580662     -0.49342674     -0.88808853
H      -1.93997172     -1.96158004      0.00071567
H       0.58602504     -2.36865582      0.00010744
H      -1.62468219      1.83873007     -0.00006822
