15
b3lypvtz=-193638.394561
O      -0.48314089     -2.15866931     -1.33883124
C      -0.22209185     -1.28129915     -0.54883740
C       1.21296993     -0.93836575     -0.17860311
C       1.41098075      0.49765667      0.22558090
C       0.42409097      1.38439572      0.30618059
C      -1.01607862      1.04778810      0.03682271
C      -1.28681524     -0.46256498      0.15000612
H       1.85110597     -1.20799341     -1.02326961
H       1.51031022     -1.60843680      0.63887986
H       2.42933124      0.80685187      0.43295349
H       0.65165880      2.41120956      0.56931363
H      -1.29613035      1.40153497     -0.96186673
H      -1.66350295      1.58814463      0.73151719
H      -2.26126127     -0.73852873     -0.24926672
H      -1.26162669     -0.74152339      1.20942032
