11
b3lypvtz=-212996.73796032
N       3.25883947      0.34250173     -0.18594579
C       2.15330439      0.11569101      0.04268470
C       0.78233539     -0.13151492      0.40404632
N       0.04224475     -0.83697860     -0.34295570
C      -1.33383641     -1.00872829      0.05006987
C      -2.17719882      0.25916797     -0.07115110
O      -1.73727725      1.37287317     -0.11843318
H       0.46665171      0.31982236      1.34784638
H      -1.44170734     -1.33121113      1.09687819
H      -1.79619020     -1.78370813     -0.56390598
H      -3.26782667      0.06431182     -0.08802871
