11
b3lypvtz=-238713.44589035
C      -1.15309518      0.58780538     -0.11298402
C      -0.32522131     -0.52097611     -0.70244480
C      -0.38172187     -0.34744433      0.77729003
O       0.91446621      0.07562935      1.15390051
C       1.70836203      0.16695579      0.04568714
O       2.84038854      0.51893673      0.04763491
O       0.99928537     -0.18481790     -1.06794798
H      -2.22615777      0.45660003     -0.13849979
H      -0.80224562      1.60561661     -0.21902427
H      -0.73429621     -1.34091556     -1.27105276
H      -0.83976419     -1.01738999      1.48744101
