20
b3lypvtz=-182679.06000428
C       2.58394694     -0.98812216     -0.44237346
C       1.76125825     -0.05685071      0.05340985
N       2.02974854      1.31419508     -0.00709087
C       0.41581307     -0.39522490      0.64327804
C      -0.77434344      0.07022333     -0.21041179
C      -2.12704136     -0.27954621      0.41075251
C      -3.31287729      0.17305325     -0.44044705
H       3.54406535     -0.73226934     -0.87262357
H       2.29872738     -2.02899261     -0.44847207
H       2.98531599      1.55086916     -0.22679094
H       1.68522285      1.84986301      0.77552928
H       0.33684833      0.05783891      1.63998563
H       0.36046689     -1.47455739      0.79002131
H      -0.69556859     -0.38796466     -1.20066840
H      -0.71107683      1.14965575     -0.36971261
H      -2.19760425      0.17427569      1.40469646
H      -2.18332902     -1.36138116      0.56848955
H      -3.30378985      1.25571196     -0.58528558
H      -3.28776022     -0.29077353     -1.42900716
H      -4.26346375     -0.09118046      0.02593486
