18
b3lypvtz=-205237.82758001
C      -1.97748519      0.95140580      0.12229962
C      -0.70896544      0.27213036      0.64501658
C      -0.87051075     -1.24766808      0.70307721
C       0.49653910      0.69109395     -0.21286257
N       1.77740195      0.23105217      0.29160734
C       2.60522672     -0.64282622     -0.33547807
O       3.67725655     -1.01600803      0.09080022
H      -1.87674381      2.03854699      0.11159424
H      -2.83840337      0.70251497      0.74397132
H      -2.20275638      0.62699483     -0.89711196
H      -0.52561124      0.63609094      1.66276323
H      -1.69715037     -1.52562886      1.35860230
H      -1.08507472     -1.65346783     -0.28940910
H       0.03004528     -1.73483373      1.07717240
H       0.38155266      0.29284583     -1.22428273
H       0.51271218      1.78124238     -0.30451447
H       2.10905478      0.58516491      1.17716451
H       2.19311204     -0.98855041     -1.30141004
