19
b3lypvtz=-195138.80807273
C       3.17494506      0.62868862     -0.30307709
C       2.15306480      0.08983044      0.35106794
O       0.97002690     -0.20420074     -0.24506608
C       0.00000973     -0.86362564      0.57491090
C      -1.27021624     -1.05762319     -0.23475332
C      -1.94788479      0.23693962     -0.70064071
C      -2.49939111      1.10558126      0.43076351
H       3.11546016      0.85485612     -1.35833142
H       4.08928385      0.85215755      0.22418375
H       2.20993753     -0.14103639      1.41151620
H      -0.18603446     -0.26317507      1.47160758
H       0.39399406     -1.83391564      0.89523706
H      -1.96581431     -1.64089646      0.37716966
H      -1.02651748     -1.67290266     -1.10428641
H      -1.23748306      0.81432025     -1.29537509
H      -2.76531725     -0.03191227     -1.37454577
H      -3.21431271      0.55164246      1.04430065
H      -1.70885424      1.46948286      1.08912520
H      -3.01486544      1.98095189      0.03287843
