15
b3lypvtz=-216919.30820946
C       1.14771947      1.49532369      0.14226319
C       0.93242552      0.00840346      0.00777070
O       1.87403306     -0.63115563     -0.81380672
C       0.47537021     -0.81979797      1.13978886
C      -0.47895408     -0.60786983     -0.03738991
C      -1.69250919      0.20569367      0.13698717
O      -2.69974613      0.07780380     -0.51841916
H       1.02335909      1.99700983     -0.82069774
H       0.44984643      1.94824053      0.84525568
H       2.16278350      1.68218834      0.49590633
H       1.80226767     -0.26907384     -1.70429474
H       0.89816737     -1.80868866      1.24051715
H       0.22816144     -0.32291276      2.06900274
H      -0.58430717     -1.43019233     -0.73161005
H      -1.64205718      0.97316269      0.93915048
