17
b3lypvtz=-217674.96409757
C       3.38391106     -0.67873745      0.13035391
C       2.22474296      0.12943568     -0.36520963
C       1.05897719      0.20953811      0.26517286
O       0.04059637      1.01145068     -0.16601814
C      -1.25373636      0.71489063      0.34452326
C      -1.92663611     -0.41409081     -0.43191266
O      -3.25283680     -0.64236093      0.02889696
H       4.25386437     -0.04860155      0.33676581
H       3.70120597     -1.41857959     -0.60987344
H       3.13674148     -1.21218882      1.04971800
H       2.35013545      0.69191435     -1.28396293
H       0.86338085     -0.33018811      1.18986923
H      -1.19210205      0.45991020      1.41062611
H      -1.84185038      1.62678604      0.25002297
H      -2.00829719     -0.13200094     -1.48146073
H      -1.31808046     -1.32377480     -0.38033552
H      -3.21392036     -1.05927969      0.89479093
