14
b3lypvtz=-203684.02358559
C      -0.82290274     -1.07472008      0.20108534
C       0.48730440     -1.27227695      0.25117268
C       1.56738720     -0.27707072     -0.03108868
O       1.34120780      1.08809814      0.34322877
C       0.25039673      1.78508481     -0.07826096
N      -0.93940027      1.46079891     -0.31145897
C      -1.57714042      0.18023826     -0.12320285
H      -1.47082220     -1.92477605      0.39726209
H       0.85123658     -2.27018338      0.47323199
H       2.47134837     -0.55131017      0.51164432
H       1.81717516     -0.29456794     -1.09894835
H       0.53111519      2.83198388     -0.17383368
H      -2.17713725     -0.01708635     -1.02087966
H      -2.32976857      0.33568764      0.66014794
