15
b3lypvtz=-191220.02493112
C      -0.60943742      1.29132578     -0.41441705
C      -0.38906352     -0.14796188      0.00070863
C       0.28477613     -0.44100829      1.30247584
C       1.02987235     -0.71599571      0.00353271
C       2.15098207      0.09356884     -0.36851650
N       3.04907943      0.74851438     -0.67339755
N      -1.37997982     -1.12211993     -0.39664108
H      -0.69345877      1.36893082     -1.50071181
H       0.20433453      1.94293227     -0.09743760
H      -1.53719040      1.66653116      0.02341051
H      -0.03804172     -1.31211172      1.85323465
H       0.62904558      0.39173471      1.89851159
H       1.10537055     -1.75373644     -0.28928979
H      -1.53968441     -1.08307728     -1.39748749
H      -2.26660458     -0.92752672      0.05602491
