11
b3lypvtz=-238710.36612406
C      -1.79613188      0.23023565     -0.15418666
C      -0.46163601     -0.12816742      0.42965896
O      -0.29560495     -0.56460833      1.54631783
C       0.77062353      0.08214727     -0.47361468
O       0.66507663      0.51319793     -1.59134510
C       2.15613822     -0.28613943      0.12031607
O       3.15137586     -0.14447785     -0.53381225
H      -1.97246680     -0.34600597     -1.06456541
H      -2.57806933      0.03771093      0.57506305
H      -1.80331160      1.28004572     -0.45358085
H       2.16400633     -0.67383849      1.14954904
