12
b3lypvtz=-202919.96832628
O       0.28525291      2.40829261     -0.71100938
C       0.22226038      1.26538146     -0.32678275
C       1.35888236      0.32148566     -0.10908136
C       0.90719888     -0.81056750      0.44119240
C      -0.58431375     -0.79651636      0.58654993
N      -1.35314417     -0.72017897     -0.66840437
C      -1.03805343      0.51808012      0.07398493
H       2.37501968      0.55632310     -0.38817364
H       1.50970521     -1.66581143      0.71540264
H      -1.06671837     -1.31984801      1.40022019
H      -0.73232427     -0.83109651     -1.46590766
H      -1.88366543      1.07445582      0.45200908
