18
b3lypvtz=-202814.46470036
C      -3.12489420     -0.16680988     -0.05672901
C      -1.67153795     -0.61017729      0.04115774
N      -0.78245850      0.53720631     -0.02971652
C       0.59862870      0.37170449      0.01738123
N       1.28260743      1.59164896      0.06867804
C       1.24218243     -0.81332568      0.03059129
N       2.67860319     -0.82941971     -0.04994321
H      -3.30483919      0.37133564     -0.98811465
H      -3.39387065      0.49146410      0.77305100
H      -3.79168333     -1.02887681     -0.02150424
H      -1.43037233     -1.27643680     -0.78971572
H      -1.51908072     -1.18901218      0.96325253
H      -1.08378690      1.31147472      0.54664401
H       2.27558713      1.42879359     -0.04578417
H       0.93785015      2.25572594     -0.61229778
H       0.69067859     -1.74087301      0.11427417
H       3.00698072     -1.41871674     -0.80607840
H       3.10175842     -1.18152863      0.80122968
