16
b3lypvtz=-225339.6934823
C       3.03640086     -0.15955115     -0.09214761
O       1.70473413      0.24713819     -0.33036061
C       0.75144276     -0.55614493      0.35007851
C      -0.62258378     -0.00114662      0.10553859
N      -0.75913977      1.37287147      0.18784947
N      -1.58228328     -0.82720086     -0.07116381
N      -2.84767660     -0.20515766     -0.22981110
H       3.28656959     -0.10975188      0.97502454
H       3.21154162     -1.18337335     -0.44313163
H       3.68627928      0.51874447     -0.64181281
H       0.97085900     -0.54935431      1.42834923
H       0.77205398     -1.59297140      0.00377946
H       0.10041550      1.86843150      0.00271034
H      -1.54539615      1.72582594     -0.34181226
H      -3.07049060      0.36054651      0.58923358
H      -3.52895153     -0.95073092     -0.27268989
