14
b3lypvtz=-203635.00230076
C      -1.68753288     -0.31989122     -0.45076734
C      -0.29295187      0.14982507     -0.19097255
C       0.48986678      0.23386837      1.08054267
N       0.02920789      1.47383840      0.39616868
C       1.73490140     -0.21396164      0.34927523
C       0.97729325     -0.28304166     -0.91082442
O       1.46057709     -1.47782239     -0.27907540
H      -1.70205237     -1.40122680     -0.59568182
H      -2.10147706      0.14962602     -1.34656151
H      -2.34661650     -0.08165695      0.38659002
H       0.17117563     -0.00860580      2.08373315
H      -0.80255811      1.80338760      0.88465734
H       2.76816458      0.05294790      0.51329189
H       1.30200216     -0.07728688     -1.92037594
