17
b3lypvtz=-194361.01862652
C       2.96445279      0.42163827     -0.25242587
O       2.26714461     -0.01183126      0.90403059
C       0.94736179     -0.29720571      0.76851068
C       0.18998328     -0.21107396     -0.32593430
C      -1.25624141     -0.55200301     -0.35455189
C      -2.31254975      0.52996649     -0.32602278
C      -2.14845840     -0.39973133      0.84738453
H       2.54034761      1.35055907     -0.64461109
H       3.99250807      0.59312123      0.05648879
H       2.94032732     -0.34003345     -1.03710283
H       0.54296051     -0.62675009      1.71670159
H       0.62278712      0.10711352     -1.26686699
H      -1.50169777     -1.38933906     -1.00054099
H      -3.18244387      0.41506154     -0.95818216
H      -1.97385594      1.54959847     -0.20309416
H      -2.90703627     -1.15135870      1.01602237
H      -1.72558969      0.01226802      1.75257465
