13
b3lypvtz=-213722.52038769
C      -3.17032844     -0.70544119     -0.00001014
C      -2.22405368      0.23023918      0.00000821
N      -0.86555157     -0.08971643     -0.00000086
C      -0.04171487      0.86146493      0.00002185
O       1.31012899      0.74948556      0.00000618
N       1.79459374     -0.58461219      0.00004267
C       3.05918018     -0.56961948     -0.00005101
H      -2.90905822     -1.75449225     -0.00002521
H      -4.21621039     -0.43491009     -0.00000626
H      -2.49895624      1.28734335      0.00003431
H      -0.28555991      1.92669556      0.00001605
H       3.54501141     -1.53658959      0.00000067
H       3.64950100      0.34311064     -0.00012246
