14
b3lypvtz=-257908.06618816
C       3.30039264     -0.00026443     -0.40510347
C       2.10009898      0.00040556      0.52906751
N       0.84473045      0.00034587     -0.22857710
C      -0.24285256      0.00002861      0.40330985
C      -1.54011571     -0.00003087     -0.35128591
F      -2.27561472      1.09873566      0.00295890
F      -2.27525885     -1.09916335      0.00256435
H       4.23131198     -0.00015353      0.16385502
H       3.28905994      0.88106447     -1.04687392
H       3.28876563     -0.88220655     -1.04602761
H       2.12670923     -0.87866771      1.18079640
H       2.12703663      0.88014982      1.17987126
H      -0.33719788     -0.00027137      1.49673681
H      -1.39416175      0.00018582     -1.43066910
