18
b3lypvtz=-181897.51414203
C       2.32464887     -0.67749961     -0.06061470
C       1.01157611     -0.53849125     -0.14341205
C      -0.16447442     -1.45211797      0.14017500
C      -1.02088794     -0.17569908      0.36226551
N      -2.33338660     -0.16691722     -0.26866991
C       0.09004743      0.65349557     -0.34938103
C       0.48330061      2.01982619      0.18530925
H       2.77907513     -1.63023607      0.18261834
H       2.99527952      0.15535929     -0.23389820
H      -0.50155591     -1.98075128     -0.75503483
H      -0.07284647     -2.15995382      0.96396205
H      -1.03557374      0.07926021      1.43067908
H      -2.94863793     -0.83422876      0.18468108
H      -2.77237238      0.74172216     -0.16350273
H      -0.18384153      0.72232723     -1.40775115
H       1.34872203      2.41755962     -0.34843518
H       0.74192612      1.96680066      1.24450797
H      -0.33069591      2.73935510      0.06803250
