14
b3lypvtz=-226995.3397543
C      -0.99776191     -0.98151574      0.73897415
C      -0.05022082     -0.46397843     -0.32319757
C      -1.44766269      0.08585992     -0.20690932
O      -1.60504002      1.36616536      0.35528770
N       1.02994977      0.39767812      0.04323731
C       2.32528298      0.14272984     -0.26897792
O       2.72514964     -0.83086753     -0.87302134
H      -0.80715861     -0.66235113      1.75477344
H      -1.40479512     -1.97748967      0.63594703
H       0.20248747     -1.10905543     -1.15107177
H      -2.17085430     -0.16733326     -0.97426248
H      -1.59835093      2.01293786     -0.35862132
H       0.80135279      1.24405180      0.54015200
H       2.99762174      0.94316829      0.08769008
