15
b3lypvtz=-193627.5550753
C      -1.34039749     -0.79595813     -1.03215600
C      -0.92769899      0.38473244     -0.19563516
C      -1.74710595      1.42337207      0.01879516
C       0.40176049      0.40036297      0.39922550
C       1.34335503     -0.55140671      0.28644336
C       2.64295669     -0.40495147      0.94067662
O       3.53738498     -1.21975771      0.88287565
H      -1.30279327     -1.72085529     -0.45234782
H      -2.35357100     -0.67165976     -1.40987916
H      -0.67100063     -0.92616320     -1.88538953
H      -2.74346380      1.45839160     -0.40101493
H      -1.43960686      2.26765417      0.62223836
H       0.64035489      1.27968511      0.99223888
H       1.19109358     -1.45903835     -0.28411212
H       2.76873234      0.53559226      1.51804120
