14
b3lypvtz=-226990.71173387
N       3.09656276      1.49093923      0.57402692
C       2.47397189      0.65035539      0.09612636
C       1.66228644     -0.42422018     -0.50682670
O       0.31366458     -0.06771226     -0.67166978
C      -0.41833296      0.07609592      0.55035069
C      -1.86875913      0.29718768      0.17849740
O      -2.43062894     -0.81966879     -0.48990431
H       1.77144485     -1.32311770      0.11252219
H       2.06000137     -0.64464864     -1.49762647
H      -0.03536538      0.92561133      1.12642267
H      -0.31601089     -0.83673632      1.14866061
H      -1.95157766      1.20721040     -0.42696594
H      -2.45133790      0.44405889      1.08859603
H      -1.90581901     -0.97545496     -1.28220966
