16
b3lypvtz=-227734.53786359
N       2.66917443      0.40660674     -0.12069255
C       1.69867277     -0.67238081      0.09527465
C       0.31509015     -0.25304228     -0.33570003
C      -0.50093191      0.70949355      0.49180271
O      -1.32205925      1.64695518     -0.13622313
C      -0.90085668     -0.73459551      0.42631442
O      -2.10995400     -0.95956766     -0.25728080
H       3.60098009      0.10160858      0.13547122
H       2.70442096      0.65891009     -1.10184889
H       1.96060807     -1.61226264     -0.41380803
H       1.68916786     -0.89517493      1.16578215
H       0.16258919     -0.14375832     -1.40529518
H      -0.05666918      1.08932216      1.40290348
H      -2.09588208      1.16747750     -0.46069908
H      -0.75214785     -1.36879157      1.29471947
H      -1.99358556     -1.68483807     -0.87834040
