11
b3lypvtz=-269616.26056108
C      -2.16674580     -0.53596904      0.16234297
C      -1.04972164      0.16969442      0.00260034
C       0.30071977     -0.34184955      0.05207648
C       1.43483591      0.34315254     -0.10561820
O       2.65375633     -0.21149681     -0.04436396
F       1.49369683      1.65710467     -0.34234410
F      -1.14942835      1.49995035     -0.23087726
H      -2.11781841     -1.59709157      0.34941380
H      -3.13200618     -0.05728547      0.10690420
H       0.41438738     -1.39919153      0.23745911
H       3.31832418      0.47298198     -0.18759337
