17
b3lypvtz=-194358.66906162
C       2.66043599     -0.00000032      0.18882993
C       1.28351442      0.00000000     -0.44964780
C       0.26182962      1.09306848     -0.00855640
C      -0.80150348      0.00000007      0.01845297
C      -2.13477283      0.00000041     -0.57711095
O      -1.95036656     -0.00000005      0.84983663
C       0.26182939     -1.09306855     -0.00855709
H       3.23397865     -0.88180171     -0.10562974
H       2.58564231     -0.00000063      1.27874427
H       3.23397880      0.88180115     -0.10562920
H       1.37719739      0.00000032     -1.53716594
H       0.10438547      1.94395451     -0.67075624
H       0.47111262      1.45825624      0.99919742
H      -2.54265569     -0.91833969     -0.98909521
H      -2.54265547      0.91834088     -0.98909464
H       0.47111231     -1.45825702      0.99919649
H       0.10438505     -1.94395410     -0.67075750
