11
b3lypvtz=-210578.36528701
C      -2.46221553      0.26722448      0.00001707
N      -1.54367976     -0.60805883     -0.00004621
N      -0.23334839     -0.19312849     -0.00003980
C       0.81074896     -1.08133162     -0.00005554
N       1.94826847     -0.45496466      0.00005544
N       1.66629054      0.90608282     -0.00011167
C       0.37347213      1.04390429      0.00001076
H      -2.30126685      1.34279565     -0.00012493
H      -3.48000608     -0.10057687     -0.00008682
H       0.65408235     -2.14612374      0.00000897
H      -0.15165783      1.98204696      0.00012474
