21
b3lypvtz=-172606.56428707
C       2.03252659      1.26441117     -0.33638697
C       1.63147894      0.03230988     -0.03223701
C       2.60966153     -1.10765886      0.07530197
C       0.19298301     -0.35000507      0.22798518
C      -0.84947613      0.76488890      0.15889355
C      -2.27657868      0.30464959      0.48460402
C      -2.88922862     -0.65261951     -0.53964886
H       1.34607313      2.09523012     -0.41905429
H       3.07788407      1.48220161     -0.51572120
H       2.36060495     -1.90506179     -0.63120644
H       2.58031568     -1.55571620      1.07298891
H       3.63070107     -0.78373321     -0.12281929
H      -0.06858037     -1.14848129     -0.47561187
H       0.14317217     -0.82343283      1.21725090
H      -0.56954705      1.55644270      0.85880799
H      -0.83812018      1.21736115     -0.83748492
H      -2.28733352     -0.16400294      1.47402272
H      -2.91429447      1.18913014      0.56428751
H      -3.92162683     -0.89395063     -0.28096853
H      -2.89385841     -0.20779185     -1.53765472
H      -2.34128989     -1.59414706     -0.60039767
