13
b3lypvtz=-216164.83510139
C       1.97949970      0.37811693      0.16109571
C       0.69685306      0.06077719      0.03451554
C       0.05251067     -1.21535823     -0.42790365
O      -1.29669775     -0.86499319     -0.77202978
C      -1.69813971      0.25660843      0.00103960
C      -0.41854058      1.00336493      0.35493025
O      -0.33363461      2.11811475      0.80764887
H       2.25229905      1.36492562      0.51443968
H       2.77891195     -0.31179344     -0.07738358
H       0.05399853     -1.97121703      0.36932715
H       0.51952786     -1.64847510     -1.31166192
H      -2.37954112      0.87535265     -0.58190783
H      -2.20704705     -0.04542350      0.92788998
