11
b3lypvtz=-215382.29549632
C      -1.02967205      1.20549947      0.53356272
C      -0.99969901     -0.11353132      0.32291552
C       0.24146662     -0.86854825      0.00012499
O       0.16730916     -2.07613409     -0.17524137
C       1.49856103     -0.16604648     -0.09853307
C       2.56559688      0.37643307     -0.19030894
O      -2.09404831     -0.89866652      0.38163497
H      -0.12066221      1.78147528      0.47292996
H      -1.95495343      1.71194572      0.76581205
H       3.51291830      0.85062233     -0.27272801
H      -1.78681697     -1.80304921      0.19065319
