14
b3lypvtz=-203693.47685893
C       1.71785523      1.50836370      0.00000127
C       1.07795705      0.34623536      0.00000036
C       1.47705275     -1.12183000     -0.00000384
C      -0.04503888     -1.45201972      0.00000303
N      -0.29058439     -0.00220530      0.00000393
C      -1.46143929      0.68713979      0.00000424
O      -2.55420040      0.16043768     -0.00000060
H       2.79766480      1.52398832     -0.00000297
H       1.20109272      2.45702121      0.00000611
H       2.01576846     -1.44654148     -0.88785106
H       2.01577747     -1.44654429      0.88783687
H      -0.42551732     -1.95131687      0.88970986
H      -0.42552629     -1.95131641     -0.88970024
H      -1.31475988      1.77959902     -0.00001297
