16
b3lypvtz=-227718.61398237877
C      -2.01874320      0.78573320     -0.53147907
C      -0.66506954      0.21202721     -0.13828690
N      -0.06246767     -0.43328264     -1.32168703
C       1.14255422     -0.91478791     -1.70233057
O       2.19106454     -0.76759676     -0.91405156
C       2.27772910     -0.09100397      0.37285506
O      -0.77212376     -0.67975266      0.96266044
H      -1.91114620      1.54470189     -1.30730947
H      -2.49391979      1.23520382      0.33838140
H      -2.67575378     -0.00321475     -0.90855346
H      -0.02142958      1.01003344      0.21793307
H      -0.74384025     -0.63155859     -2.03865838
H       3.27551946     -0.31667773      0.73925294
H       2.18517980      0.98627512      0.23730547
H       1.52981284     -0.46346418      1.06832523
H      -1.23736621     -1.47263549      0.67135288
