21
b3lypvtz=-172616.99801887
C       2.54446741      0.58006792      0.11429310
C       1.18420699      0.11614759     -0.39839618
C       0.75926566     -1.28082034      0.09136776
C      -0.75926512     -1.28082024     -0.09136799
C      -1.18420459      0.11614824      0.39839485
C      -2.54446984      0.58006588     -0.11428381
C      -0.00000111      1.04054006     -0.00000732
H       2.80004959      1.56962087     -0.27104084
H       3.33921435     -0.10673716     -0.18609810
H       2.54908279      0.63819070      1.20603188
H       1.23006213      0.07698214     -1.49143600
H       1.26519172     -2.08566702     -0.44514521
H       1.00568548     -1.39317627      1.15275913
H      -1.00568552     -1.39317678     -1.15275919
H      -1.26519132     -2.08566620      0.44514595
H      -1.23004979      0.07698602      1.49143530
H      -2.54909516      0.63818413     -1.20602278
H      -2.80004879      1.56962039      0.27104827
H      -3.33921387     -0.10673809      0.18611757
H       0.27723265      1.69435417      0.82995639
H      -0.27723865      1.69433900     -0.82998176
