14
b3lypvtz=-203689.56600027
C       2.86464922     -0.26982729     -0.31394756
C       1.78929184     -0.29844233      0.46315871
C       0.41309095     -0.67959721      0.01191466
C      -0.56712662      0.47605845     -0.01029513
N      -0.30981780      1.71998660      0.00061523
C      -2.03049199      0.13047113     -0.07267967
O      -2.45259476     -0.99834540     -0.06218971
H       3.83522177      0.01220087      0.07200701
H       2.81536328     -0.53845706     -1.36283952
H       1.88599626     -0.02155028      1.50921645
H      -0.00967186     -1.45946891      0.65123569
H       0.44026711     -1.11272617     -0.99279735
H       0.69795423      1.89043195      0.03795427
H      -2.68837662      1.01658465     -0.12763008
