15
b3lypvtz=-212100.33770875
C       0.74639916      1.99029948     -0.06411233
N       1.37425164      0.68120633      0.03418006
C       0.74266304     -0.52387551      0.00141466
N       1.63226450     -1.59155294      0.07120777
C      -0.60738574     -0.76208883     -0.07580024
N      -1.54679615      0.22104276      0.09742536
N      -2.77184356     -0.03849779      0.04470920
H       0.08046150      2.02212052     -0.92221269
H       0.15715621      2.24447635      0.81748910
H       1.53837148      2.72642592     -0.20074022
H       2.26960936      0.65827252      0.49424389
H       2.43816835     -1.51249838     -0.53220975
H       1.19999746     -2.49966588      0.01823000
H      -0.94919658     -1.78361084     -0.26097995
H      -2.91973867     -1.05854470     -0.13888086
