16
b3lypvtz=-181145.01213536
C      -2.69113198     -0.00007552      0.13086041
N      -1.59226176     -0.00004884     -0.48713457
C      -0.36231662     -0.00005914      0.28280308
C       0.52736219     -1.22746659     -0.04445106
C       1.92440821     -0.66436543      0.01041723
C       1.92438923      0.66431713      0.01043088
C       0.52732831      1.22738233     -0.04442529
H      -3.62232175      0.00015264     -0.43158910
H      -2.76828346      0.00016866      1.22585383
H      -0.57402059     -0.00007307      1.36154584
H       0.29207748     -1.60513228     -1.04476309
H       0.35898839     -2.05023436      0.65355521
H       2.80909061     -1.28716476      0.00794966
H       2.80905373      1.28714179      0.00797793
H       0.35893117      2.05012882      0.65360037
H       0.29203283      1.60506561     -1.04472834
