12
b3lypvtz=-223841.55326797
N       2.30589229      1.90687369      0.28505120
C       1.80858067      0.86960922      0.28624549
C       1.12624385     -0.43210792      0.24959000
N      -0.29086312     -0.32310651      0.58005448
C      -1.24305842      0.03107490     -0.38543425
N      -2.42141392     -0.41006007     -0.49585638
O      -0.80712350      0.96447959     -1.26801034
H       1.29741871     -0.87525880     -0.73639531
H       1.60045229     -1.08159838      0.98528693
H      -0.61412743     -1.02525470      1.22441376
H      -2.60022343     -1.18268408      0.13840579
H      -0.16167801      1.55813304     -0.86315139
