17
b3lypvtz=-194360.44855926
C      -1.98130739     -0.12743500      0.06357136
C      -0.52535446      0.08874862     -0.21726520
C       0.19398663      1.44409958     -0.17998534
C       1.44129561      0.75837757      0.46767666
C       0.71202269     -0.57798209      0.36517531
C       0.30538632     -0.86715935     -1.04942914
O       0.75532128     -1.56496062      1.34436475
H      -2.29383112      0.41527775      0.95871193
H      -2.60184466      0.21676338     -0.76831278
H      -2.19626693     -1.18498340      0.22437917
H       0.35428506      1.92012170     -1.14946662
H      -0.28144042      2.16031749      0.48959888
H       2.39452002      0.84271909     -0.05954841
H       1.57781497      1.06289244      1.50425282
H       0.89396252     -0.51379477     -1.89127014
H      -0.14834927     -1.84046179     -1.18941638
H       1.39979916     -2.23254061      1.08696314
