19
b3lypvtz=-218451.29477251
C       2.54301604      0.40081587      0.22053574
O       1.25428530      0.53730157     -0.36010661
C       0.27596793     -0.30510377      0.19819248
O       0.54959364     -1.66571143     -0.08236482
C      -1.09171061      0.15059365     -0.32054959
C      -1.35662488      1.61857027      0.02491665
C      -2.20657830     -0.75366968      0.21145342
H       3.19562572      1.10721262     -0.28813103
H       2.51962745      0.64214194      1.28942063
H       2.93446161     -0.61101033      0.09637819
H       0.30868943     -0.24506115      1.29409426
H       0.51234385     -1.77922124     -1.03997529
H      -1.05103981      0.05655146     -1.41286230
H      -0.58941387      2.26937005     -0.38899944
H      -1.37653464      1.76388353      1.10846055
H      -2.32556156      1.93395190     -0.36532035
H      -3.17050638     -0.45363320     -0.20195023
H      -2.27784516     -0.68231322      1.29994430
H      -2.03423577     -1.79864984     -0.04059656
