17
b3lypvtz=-191952.33553408
C       3.30994815      0.38270538      0.02400136
C       2.04009126     -0.39781253     -0.07459157
N       0.90592804      0.16882388      0.01837063
N      -0.22518108     -0.59162091     -0.15122111
C      -1.39439682     -0.07999208      0.50355200
C      -2.71905357     -0.42191445     -0.11794232
C      -2.18032906      0.98158897     -0.20526717
H       3.93923343      0.01079657      0.83748631
H       3.89740156      0.29640302     -0.89486112
H       3.08996740      1.43400110      0.20102013
H       2.11799385     -1.47954542     -0.24379186
H      -0.07897756     -1.58669472      0.00713487
H      -1.35670877     -0.01727316      1.58844388
H      -3.55280493     -0.61963081      0.54079050
H      -2.69677771     -1.01939910     -1.01840825
H      -1.79298488      1.31149696     -1.15784617
H      -2.64346131      1.75203629      0.39454489
