15
b3lypvtz=-237808.88113812
C      -0.66279946     -0.67517227     -0.22830325
C      -1.97040517      0.01301477      0.13677019
O      -1.99491611      1.40726861     -0.13555384
N       0.45997348     -0.13984967      0.54562463
N       1.66271896     -0.91795160      0.26260418
C       2.60446697     -0.12366942     -0.07296467
O       2.52142669      1.20477413     -0.15292873
H      -0.44454533     -0.51908976     -1.28821117
H      -0.77156417     -1.75824723     -0.08319420
H      -2.79025380     -0.50637252     -0.37374240
H      -2.15416971     -0.07680731      1.21011748
H      -1.88887682      1.53741623     -1.08299463
H       0.26728692     -0.29919751      1.53040061
H       3.57784206     -0.52638640     -0.32591983
H       1.58381549      1.38026994      0.09758446
