16
b3lypvtz=-227760.3544065592
C      -1.46739095     -0.55153565      0.19527466
C      -2.05832340      0.80923562     -0.08199111
O      -2.57470850      1.50497974      0.75783134
C       0.00196115     -0.67852013     -0.21714097
C       0.92795626      0.27989520      0.53816833
N       2.27116299      0.18661947     -0.04703921
O       0.10144700     -0.44570750     -1.61302859
H      -1.59185675     -0.78019754      1.25435199
H      -2.03670425     -1.28321880     -0.38723736
H      -1.99420596      1.14371996     -1.13397560
H       0.32204367     -1.70706161      0.01034878
H       0.89107963      0.06112857      1.61204179
H       0.57505486      1.30366184      0.40052445
H       2.77064620     -0.62145955      0.30505579
H       1.03387537     -0.22370825     -1.76327293
H       2.82796270      1.00216862      0.17008863
