12
b3lypvtz=-226231.84589634
C       1.52620896     -0.09963528     -0.91588765
C       0.83215714      0.45411490      0.06607435
C      -0.51350241     -0.04020958      0.54804799
C      -1.53076605      1.03952218      0.40778890
N      -2.31866711      1.86230441      0.25392019
O      -0.48147333     -0.33071992      1.93194391
O      -0.89204078     -1.15780591     -0.21033745
H       2.50132794      0.28269461     -1.18563545
H       1.14290596     -0.94109966     -1.47492373
H       1.20556660      1.30591662      0.62061350
H       0.27552026     -0.91108433      2.08302385
H      -1.74723718     -1.46399802      0.11481026
