14
b3lypvtz=-203646.00643867
C       3.19511277      0.49378065     -0.48670647
C       2.06957046      0.08111710     -0.41899273
C       0.72517537     -0.42056259     -0.36136422
C      -0.35859515      0.40239762      0.24951757
N      -0.33179339      0.19349236     -1.20353350
C      -1.52367227     -0.23985958      0.95578287
O      -2.73070952      0.46932423      0.71661360
H       4.19063568      0.85797893     -0.54012321
H       0.64337880     -1.49926959     -0.29297874
H      -0.07099791      1.38126892      0.61617844
H       0.04928715      1.00900032     -1.67241024
H      -1.36844757     -0.22447948      2.03538618
H      -1.61050295     -1.28546095      0.63849427
H      -2.87844148      0.46368407     -0.23586382
