13
b3lypvtz=-211359.52766566
C      -1.55693034     -1.30342130     -0.01750537
N      -0.30619064     -0.58067644      0.00410954
N       0.88555858     -1.24379383      0.01661830
N       1.82177811     -0.35186909      0.00786613
C       1.27067663      0.89057009      0.00959554
C      -0.10151592      0.75785848      0.00905495
N      -1.15016404      1.66871448     -0.07837648
H      -1.32832802     -2.34046317     -0.24641933
H      -2.06266282     -1.25735543      0.94956352
H      -2.21247760     -0.89239651     -0.78545860
H       1.86947882      1.78456263      0.00760902
H      -1.87542485      1.54095321      0.61453759
H      -0.83193091      2.62604189     -0.07074580
