19
b3lypvtz=-216036.85674675
C       2.17881657      0.40128470      0.09359786
C       1.01560038     -0.51170783      0.44492362
O      -0.19219217      0.20223764      0.26588325
C      -1.35122139     -0.55494274      0.57671291
C      -2.57036443      0.29144022      0.27469210
N      -2.66224929      0.55297658     -1.16266182
N       3.44171172     -0.32289783      0.25980659
H       2.17467386      1.24889502      0.78101000
H       2.01651053      0.80419524     -0.91471800
H       1.02749782     -1.40419218     -0.19853946
H       1.11733935     -0.85478734      1.48207998
H      -1.34178954     -0.84163905      1.63701750
H      -1.37603777     -1.46958181     -0.02958232
H      -2.52020033      1.19912759      0.89257919
H      -3.45737180     -0.26583961      0.58585315
H      -3.45960306      1.14304407     -1.36635152
H      -1.83623175      1.05884406     -1.46065460
H       3.56978972     -0.99218308     -0.49041005
H       4.22532160      0.31572631      0.21319118
