12
b3lypvtz=-223830.43038017
C       1.99348683     -1.31050506     -0.00060279
N       1.88476909     -0.04646463      0.00000135
C       0.61171000      0.55697828      0.00009927
N       0.43547383      1.80532410     -0.00044003
O      -0.43749009     -0.32763068      0.00011915
C      -1.73944313      0.14973065     -0.00020158
N      -2.73338871     -0.61186236     -0.00001369
H       2.99324210     -1.73583748     -0.00034195
H       1.14635285     -1.99517224     -0.00134919
H       1.33987423      2.26824014     -0.00049097
H      -1.80735358      1.23000447     -0.00055746
H      -2.45927742     -1.59498118      0.00037490
