17
b3lypvtz=-220272.56236216
C      -1.82457438     -1.38077013      0.17684504
N      -1.03222581     -0.29119523     -0.34884093
C      -1.50405991      1.09158825     -0.12994142
C      -0.04048176      1.52894309      0.09467500
C       0.26305028      0.02554959      0.28667996
C       1.45185526     -0.58493949     -0.41955056
F       2.63051215     -0.21373822      0.23174945
H      -1.30404554     -2.32885964      0.03234455
H      -2.04644408     -1.26986407      1.25199328
H      -2.77224485     -1.43996434     -0.36129464
H      -2.05219986      1.52688355     -0.96706435
H      -2.10964308      1.19279613      0.78154814
H       0.42617506      1.93661127     -0.80061378
H       0.15834057      2.18440370      0.93762536
H       0.29517998     -0.24686834      1.35212375
H       1.39646008     -1.67659686     -0.41254576
H       1.50928889     -0.23699225     -1.45252207
