20
b3lypvtz=-205977.79264393
C       2.98806301     -0.36171256      0.16086329
N       1.61066428     -0.24128386     -0.30568228
C       0.93901354      0.97958148      0.15590677
C      -0.52965804      1.02007281     -0.26686630
C      -1.38828277     -0.09155952      0.34918871
C      -2.85985606      0.05089809     -0.00526252
O      -0.97001034     -1.38062750     -0.08613860
H       3.61279625      0.50876326     -0.08695648
H       3.44628039     -1.24963427     -0.27410554
H       2.99547341     -0.47900884      1.24567449
H       1.59360393     -0.26371612     -1.31944434
H       1.00140357      0.99179984      1.24851747
H       1.45587303      1.88634239     -0.19484856
H      -0.60535303      0.95877000     -1.35825545
H      -0.94132504      1.99069827      0.02336064
H      -1.28669460     -0.02302169      1.44450897
H      -3.42739700     -0.77281998      0.42780513
H      -3.26794051      0.98976836      0.37312751
H      -2.99413362      0.02075827     -1.08818772
H       0.00291761     -1.37869145     -0.06094620
