13
b3lypvtz=-190468.87576584
N      -2.38756106     -0.59777580     -0.00000280
C      -1.19321998     -0.16393445      0.00000084
C      -0.69651038      1.22338860     -0.00000177
C       0.64466342      1.25568447      0.00000135
C       1.20587840     -0.10373369      0.00000398
N       2.45656318     -0.33159132      0.00000067
C       0.02800701     -1.06774763      0.00000933
H      -3.05584833      0.17427681     -0.00000840
H      -1.35644086      2.08057036     -0.00000402
H       1.27545498      2.13271106     -0.00000199
H       2.64894367     -1.33412316      0.00000168
H       0.03558198     -1.71379694     -0.87934531
H       0.03557997     -1.71378031      0.87937643
