17
b3lypvtz=-191962.91263296
C      -1.57108626      1.29014779     -0.00167752
C      -0.56614241      0.33229732      0.61944375
C       0.61314011     -0.08059825     -0.32215274
C      -0.13544092     -1.43541754     -0.47641364
N      -0.97847411     -1.09184231      0.68781369
C       1.93995933     -0.18373280      0.36029495
N       3.03999109      0.33831341      0.00896444
H      -2.46456365      1.36357687      0.62275347
H      -1.14788697      2.29305920     -0.09218473
H      -1.87814907      0.95946315     -0.99648320
H      -0.24977342      0.71846138      1.59250995
H       0.70142818      0.51429847     -1.23182360
H       0.46511529     -2.33767909     -0.34372286
H      -0.66485556     -1.50756451     -1.43112577
H      -1.97081392     -1.26404757      0.58386797
H       1.94169252     -0.78210286      1.27600233
H       2.92585974      0.87336733     -0.85606652
