13
b3lypvtz=-211352.49094385037
C       1.44238278     -0.69201919     -0.32996568
N       0.47207659      0.33557017     -0.66220223
C      -0.80922998      0.15930731     -0.39411917
N      -1.71716364      1.15097578     -0.57840868
N      -1.19063131     -1.03230450      0.07595179
C       2.45869461     -0.24314763      0.53300826
N       3.27068386      0.11813974      1.28333057
H       1.77164797     -1.25199841     -1.19805067
H       0.74118282      1.23911832     -1.04183835
H      -1.40967777      1.98767200     -1.04605517
H      -2.67364640      0.89205153     -0.74682158
H      -2.01930187     -1.09126774      0.64459581
H      -0.33701765     -1.57209736      0.31546876
