12
b3lypvtz=-247060.77865633
N       3.62259349      0.86319027      0.20568991
N       2.73539603      0.02638504      0.26536224
O       1.53531257      0.63582448     -0.14811891
N       0.52576111     -0.33565210     -0.06867896
C      -0.59010201      0.15643546     -0.41383805
C      -1.80848340     -0.71840755     -0.41100468
O      -2.83281187     -0.20262048      0.43324310
H       4.46818636      0.37400017      0.51349528
H      -0.68681943      1.20272338     -0.70483365
H      -2.17192490     -0.84476430     -1.43794216
H      -1.54050936     -1.69956644     -0.02451712
H      -3.25649858      0.54255206     -0.00305700
