12
b3lypvtz=-200513.93420861
C       2.18865625      0.27174861     -0.14951476
N       1.61780367     -0.97820833     -0.20727349
C       0.34585887     -0.65571585     -0.07944622
N       0.18687493      0.65240261      0.04086622
N       1.36382471      1.31254274      0.00118143
C      -1.28610044      0.63568978      0.15304667
C      -1.14706752     -0.93749565      0.01312378
H       3.25336714      0.42065342     -0.22248106
H      -1.79375863      1.13852823     -0.66762301
H      -1.65650508      0.99240744      1.11204308
H      -1.60486469     -1.35349562     -0.88192527
H      -1.46808919     -1.49905736      0.88800263
