10
b3lypvtz=-223084.62231198
N      -1.40426411      0.62175574      0.45240019
C      -0.38042571     -0.20876709      0.12979517
N      -0.30234123     -1.48227712      0.11840732
C       0.87334198      0.53444356     -0.26378646
O       0.93246115      1.73773775     -0.32956825
C       2.04375760     -0.29495252     -0.57679041
N       3.02199694     -0.84102578     -0.84001273
H      -2.32678721      0.26299530      0.61772887
H      -1.28520905      1.61038351      0.30589931
H      -1.17253036     -1.94029335      0.38582700
