17
b3lypvtz=-191956.63321469
N      -2.77809626      0.97945983      0.20738813
C      -2.47282250     -0.40992453     -0.17096044
C      -1.03554903     -0.66793068     -0.12526917
C       0.14543423     -0.88696521     -0.06886316
C       1.58979561     -1.07943720     -0.00413024
C       2.33819984      0.19279392      0.46473115
N       2.16869730      1.38245117     -0.35722969
H      -3.78068108      1.12656393      0.17770332
H      -2.48407839      1.14623039      1.16282503
H      -2.98172576     -1.16111788      0.45010814
H      -2.83019884     -0.56154386     -1.19323638
H       1.82604767     -1.90509065      0.67508233
H       1.96397319     -1.37124949     -0.99100418
H       3.40380854     -0.04051736      0.51886120
H       2.01503010      0.43224055      1.47979947
H       1.18500687      1.61638689     -0.43469515
H       2.50406951      1.21746319     -1.29955337
