16
b3lypvtz=-204420.74892478
C       1.32922554     -0.97911136      0.24098155
C       0.32228052      0.13268656     -0.01919994
C      -0.85012637     -0.19093683     -1.02195583
C      -1.83674313      0.05810444      0.11709396
C      -0.76000731      0.34003063      1.06708572
O      -1.51837949     -0.86851438      1.17098781
N       0.90622334      1.43185144     -0.35187216
H       2.02624437     -0.69021821      1.03225580
H       0.82836570     -1.89839138      0.54486950
H       1.91307005     -1.18737008     -0.65925105
H      -0.90824014      0.55635086     -1.81136715
H      -0.87552965     -1.19552658     -1.44318454
H      -2.85233963      0.42522575      0.07616814
H      -0.72149150      0.99175188      1.92999925
H       1.41447804      1.37289509     -1.22802419
H       1.58296964      1.70117217      0.35541314
