16
b3lypvtz=-204427.14623326
C       2.22214930      0.04850091      0.66770439
C       1.37259226      0.32280852     -0.31334034
C       0.07343864     -0.39812465     -0.54691831
C      -1.09720904      0.55098740     -0.40057770
C      -1.86534140      0.65134874      0.83786230
O      -2.38707147     -0.06744949     -0.28778671
N       0.04882684     -0.92125258     -1.91882321
H       3.14434528      0.60104430      0.79083999
H       2.02641641     -0.74031135      1.38492676
H       1.60100979      1.10683468     -1.02909966
H      -0.04120312     -1.17862626      0.21817894
H      -1.07673146      1.40459083     -1.07321921
H      -2.38301118      1.57453072      1.07658898
H      -1.58904721      0.03813191      1.68968485
H      -0.83450662     -1.38858822     -2.09067671
H       0.78534299     -1.60442546     -2.04872018
