18
b3lypvtz=-202794.26915508
C       1.43905775      1.03005682      0.44839330
C       1.13176854     -0.28017007     -0.33032541
C      -0.32623368     -0.10397706      0.15736204
N      -0.01603355      1.31881979      0.46800821
C      -1.47178334     -0.31689931     -0.81913491
N      -2.78659621      0.12780724     -0.35298637
N       1.77760850     -1.53962614     -0.03535122
H       2.04926049      1.79321586     -0.03935444
H       1.86773121      0.80822945      1.43408717
H       1.19201455     -0.11112909     -1.40632736
H      -0.49216777     -0.71096343      1.06053031
H      -0.37119125      1.65631296      1.35323114
H      -1.24605294      0.22506256     -1.74078040
H      -1.53173605     -1.37822552     -1.07493054
H      -3.05442657     -0.36664997      0.49082295
H      -2.74894996      1.11420346     -0.12101391
H       2.69756353     -1.59425206     -0.45510003
H       1.89016677     -1.67181547      0.96286949
