13
b3lypvtz=-190451.72358503
C       2.56043869     -0.19456258      0.25256482
N       1.63604487      0.46553787     -0.31122650
C       0.30713520      0.13666277     -0.10401217
C      -0.31054080     -1.06543623     -0.14861124
N      -1.71277681     -0.95709844      0.00805678
C      -1.98280735      0.29385930      0.12692006
C      -0.77043990      1.17330655      0.04611605
H       3.59483206      0.03964058      0.01719007
H       2.36907146     -0.99293857      0.97592736
H       0.13272270     -2.03094858     -0.33723183
H      -2.99391182      0.64694898      0.28912364
H      -0.65379139      1.80819556      0.93021755
H      -0.79906891      1.84399879     -0.81824859
