17
b3lypvtz=-191944.94979149
C       2.54425061     -0.19928591      0.57911652
C       1.15793235      0.29957534      0.44669564
N       2.06310993      0.31446339     -0.71635014
C      -0.02801876     -0.62910240      0.35624788
C      -1.14691213     -0.04289332     -0.46939383
C      -2.56957726     -0.35054721     -0.20521734
N      -2.00419666      0.94731832      0.20642859
H       3.25379491      0.39385729      1.14365906
H       2.72917799     -1.26663529      0.60189056
H       0.94162391      1.25531369      0.91315399
H       2.42330871      1.24901217     -0.87523154
H      -0.40034765     -0.84161704      1.36206703
H       0.29315108     -1.57560847     -0.08691835
H      -0.88032635      0.16102188     -1.50144852
H      -3.25538474     -0.37765306     -1.04362395
H      -2.83158038     -1.00982298      0.61368027
H      -2.29000557      1.67260361     -0.44212624
