15
b3lypvtz=-216885.65778802
C      -1.43622601     -0.64210975      0.48093643
C      -0.57050329      0.29351595     -0.31904503
C       0.82349714     -0.01904146     -0.80992242
C       0.59908554      1.04583690      0.24899111
O       1.28284308      0.28971831      1.25396433
C       1.62599230     -0.72863527      0.26512804
O      -1.24968327      1.01724046     -1.32358811
H      -1.85683404     -1.41765315     -0.16115738
H      -2.26429940     -0.09135884      0.93547962
H      -0.87594656     -1.11107052      1.28763016
H       1.08023726      0.07939084     -1.85319473
H       0.70687397      2.12243062      0.23856844
H       2.70116617     -0.72057875      0.07867555
H       1.31032404     -1.72824386      0.57252827
H      -1.87652692      1.61055851     -0.89499428
