12
b3lypvtz=-228859.48449527
F      -2.43928613      0.50022757      0.00006454
C      -1.62813267     -0.63324337      0.00000953
C      -0.19171433     -0.23553839     -0.00000631
C       0.34398820      1.02192210      0.00008411
N       1.70864994      0.82832040     -0.00005365
H       2.40930742      1.54875467     -0.00002787
C       1.92855769     -0.51362065     -0.00010006
N       0.80225138     -1.18488079     -0.00011982
H      -1.87299164     -1.22306882     -0.88642731
H      -1.87295691     -1.22312158      0.88642132
H      -0.10693774      1.99659787      0.00007182
H       2.91812078     -0.94021401     -0.00005530
