15
b3lypvtz=-216898.85910015
O       1.97546291      0.23673860     -0.93162723
C       0.75944158     -0.41151468     -0.62150677
C       0.38292591     -0.53110040      0.88374979
C       0.06899747      0.97865914      0.84986475
C      -0.42871653      0.59233085     -0.57952259
C      -1.56039465     -0.36793006     -0.22730206
O      -0.91095083     -1.15564588      0.81390317
H       2.70019370     -0.37216909     -0.75888649
H       0.62011915     -1.32115665     -1.21364766
H       0.99601514     -1.02168253      1.63492052
H      -0.66351966      1.34651510      1.56720477
H       0.95597956      1.60288275      0.82492440
H      -0.59275329      1.31899138     -1.37048454
H      -1.85743232     -1.02170082     -1.04982827
H      -2.44526813      0.12698228      0.17823823
