20
b3lypvtz=-182679.37838376
C       1.60986789      0.80331058     -0.86628164
C       0.64284050      0.00545920      0.00989745
C       1.43030407     -0.90595490      0.95922409
C      -0.33069393      0.93663833      0.81525270
C      -1.72925271      0.66543163      0.23810212
C      -1.58837306     -0.76113296     -0.30998200
N      -0.22835443     -0.83965872     -0.85426158
H       1.07204508      1.50871005     -1.50459298
H       2.18815340      0.13419656     -1.50709602
H       2.31229130      1.37268990     -0.25594734
H       0.75367407     -1.54315974      1.53085306
H       2.01990230     -0.31930804      1.66787286
H       2.10395121     -1.55323185      0.39645400
H      -0.30282955      0.67942091      1.87561629
H      -0.04378281      1.98551528      0.73451039
H      -1.94902911      1.35348478     -0.58230232
H      -2.52342035      0.77289802      0.97858954
H      -2.32113072     -1.01614684     -1.07567767
H      -1.69917237     -1.48971231      0.49923102
H      -0.23390578     -0.45357589     -1.79103396
