10
b3lypvtz=-248753.22162579
C      -2.62818901     -0.64879575      0.00000825
N      -1.75643024      0.26646385     -0.00003033
O      -0.45894269     -0.33268775     -0.00002657
C       0.54805374      0.56910645     -0.00003601
O       0.46599694      1.76205456     -0.00000788
C       1.91205568     -0.13755878     -0.00001126
O       2.07137047     -1.32367112     -0.00002699
H      -2.38840515     -1.70830314      0.00006778
H      -3.65873509     -0.31749992      0.00003148
H       2.73873335      0.59508761      0.00001854
