13
b3lypvtz=-213752.69505926
N       2.16582806     -0.67038212     -0.47106622
C       0.87176036     -0.25223989     -0.18888893
C       0.45924926      0.99610405      0.04441021
N      -0.91732291      1.32105696      0.28474593
C      -1.75757075      0.19097526      0.27803665
C      -1.30521390     -1.04273852      0.09115290
O       0.02341755     -1.34347555     -0.20136663
H       2.86302229      0.04024003     -0.31013724
H       2.40510210     -1.53456486     -0.00194952
H       1.16781666      1.80512155      0.13469995
H      -1.26080548      2.06135393     -0.31627369
H      -2.80348623      0.35826580      0.49235274
H      -1.91159701     -1.92991664      0.16438387
