18
b3lypvtz=-205194.72442488
C      -1.46651903     -1.71330465     -0.40873503
C      -0.69448207     -0.42520056     -0.55935731
C      -0.01053247      0.25074044      0.62665016
C      -1.23105566      0.86054787     -0.00753071
O      -1.07217319      2.00366377     -0.81369687
N       1.24027352      0.94163246      0.51330462
C       2.40273209      0.06776819      0.41359215
H      -0.81135894     -2.58120693     -0.50921422
H      -2.25452024     -1.79896956     -1.16096731
H      -1.94190044     -1.77504366      0.57252676
H      -0.16932246     -0.29872533     -1.50014387
H      -0.15428881     -0.22320410      1.59329011
H      -2.16835262      0.82489909      0.54027619
H      -1.03510606      2.77438182     -0.23658520
H       1.20094741      1.57409599     -0.27606126
H       2.35411767     -0.64813403     -0.42016085
H       3.30234175      0.67277082      0.29660184
H       2.50919956     -0.50671163      1.33621081
