12
b3lypvtz=-207907.00642759
C      -3.78643265     -0.33033031     -0.00000025
C      -2.64974716      0.06658621     -0.00000073
C      -1.32941319      0.57264074     -0.00000092
C      -0.22317726     -0.19500971      0.00000017
C       1.11849199      0.33192412     -0.00000011
C       2.19495378     -0.45111772      0.00000073
F       3.43694133      0.05722371     -0.00000031
H      -4.78541301     -0.68842461     -0.00000348
H      -1.22636257      1.65354754     -0.00000189
H      -0.33699441     -1.27364568      0.00000138
H       1.26015850      1.40672367     -0.00000119
H       2.19118465     -1.53322095      0.00000059
