11
b3lypvtz=-210607.66686699
C       2.47782632      0.29656322     -0.00001884
N       1.58931434     -0.60966959     -0.00014379
C       0.25128197     -0.22842058     -0.00027197
N      -0.69484335     -1.15729442      0.00003805
N      -1.82176132     -0.41781254     -0.00002891
H      -2.72001781     -0.87032673      0.00001938
C      -1.52279257      0.89743926      0.00002596
N      -0.22208724      1.05796001      0.00026199
H       3.52097422     -0.00679952     -0.00000882
H       2.24915243      1.36359983      0.00015079
H      -2.26858698      1.67602704     -0.00017883
