16
b3lypvtz=-204444.0109457
C      -2.78389367     -0.89724227      0.01353164
C      -1.72100436     -0.26777465     -0.46749567
C      -0.66781500      0.40381006      0.37867017
O      -0.44931127      1.72762517     -0.05429826
C       0.61798807     -0.39531182      0.33624362
N       1.67647041      0.14183246     -0.08446291
C       2.90649668     -0.62243506     -0.12963910
H      -2.97715020     -0.95176854      1.07874782
H      -3.50452632     -1.37425336     -0.63732009
H      -1.55019178     -0.20275714     -1.53742832
H      -1.01354968      0.40641211      1.42271985
H       0.49509643      1.77621473     -0.27934667
H       0.56322256     -1.43588287      0.67715682
H       3.27759927     -0.64287935     -1.15583534
H       3.66381132     -0.11829456      0.47318213
H       2.79143955     -1.65239693      0.22897732
