18
b3lypvtz=-181921.80859802
C       2.42783201     -0.47505823     -0.44016820
C       1.22058592     -0.04699974      0.39336972
C       0.57150140      1.24765614     -0.05049549
N      -0.69471237      1.28119371     -0.06543538
C      -1.21102452     -0.03231695      0.38328374
C      -2.40535470     -0.47051692     -0.45225915
C       0.00247513     -0.99006848      0.34352101
H       2.83678623     -1.42028449     -0.07959483
H       3.22615537      0.26851661     -0.39459611
H       2.15127314     -0.60791530     -1.48816261
H       1.55120833      0.08782246      1.43154155
H       1.15308865      2.12668921     -0.32316522
H      -1.54638239      0.10958375      1.41734421
H      -3.20237391      0.27134305     -0.40236755
H      -2.11822459     -0.58952485     -1.49895160
H      -2.79857248     -1.42453521     -0.09556182
H      -0.00766146     -1.72358616      1.14917296
H       0.00427524     -1.53807760     -0.60318023
