16
b3lypvtz=-204432.88081644
C      -0.51987377      1.52389928     -0.17240127
C      -0.05987156      0.07333716     -0.03122623
C      -0.82594641     -0.93287722     -0.93711505
O      -1.44848387     -1.55095842      0.20363175
C      -0.70411279     -0.71589648      1.12688737
C       1.43450447     -0.00865266     -0.14784196
N       2.17522910     -0.44471548      0.78057805
H      -1.60877296      1.58235796     -0.15392610
H      -0.17539127      1.95866281     -1.11395333
H      -0.13068101      2.13615378      0.64329334
H      -1.55767201     -0.48834681     -1.61755246
H      -0.19807247     -1.63761867     -1.49094198
H      -1.36837697     -0.13938129      1.77462247
H      -0.00205700     -1.29226570      1.72827082
H       1.83083994      0.35277064     -1.10710636
H       3.15873857     -0.41646889      0.51478096
