15
b3lypvtz=-193608.98771003
C      -1.37204789      0.91332990     -0.12596578
C      -0.17774532      1.48660522     -0.00015728
C       1.01206659      0.69888389      0.40211120
O       1.69552889     -0.05540674     -0.62445886
C       0.92860503     -0.76424791      0.36083201
C      -0.35292390     -1.41966880     -0.12830846
C      -1.60650328     -0.55643420      0.10152339
H      -2.23239675      1.51789662     -0.39081411
H      -0.05123479      2.54897919     -0.17045738
H       1.68852141      1.17194786      1.10815813
H       1.53924589     -1.33829061      1.05140119
H      -0.23352175     -1.60747390     -1.19707524
H      -0.47905283     -2.39087550      0.35319476
H      -2.41253994     -0.90497852     -0.54746953
H      -1.97769636     -0.69527149      1.12423195
