18
b3lypvtz=-181901.77728452
C       1.84519812      0.08576804     -0.15697327
C       0.93951181      1.32139655     -0.01742629
C      -0.37115392      0.74539394      0.55275977
C      -1.62236367      0.63442415     -0.36899852
C      -1.63077497     -0.90433073     -0.15851294
C      -0.23305457     -0.80225478      0.50165181
N       0.88773844     -0.99405364     -0.41754921
H       2.55963807      0.17155250     -0.97722395
H       2.41979669     -0.06257230      0.77136157
H       1.38655413      2.07904778      0.62638651
H       0.76741355      1.77700328     -0.99358455
H      -0.60993200      1.13803976      1.53962081
H      -2.51186320      1.16778639     -0.03552619
H      -1.40934561      0.92656107     -1.39654699
H      -2.39926281     -1.22682343      0.54462183
H      -1.68113376     -1.52557501     -1.05127582
H      -0.11019298     -1.32500772      1.45797298
H       1.30227670     -1.91379784     -0.34643453
