16
b3lypvtz=-227779.8071375
C      -2.54589216      0.23728943      0.00001222
O      -1.17629259      0.65754529     -0.00004713
C      -0.26762689     -0.35523119     -0.00008204
O      -0.58629589     -1.52767300     -0.00008442
N       1.01347215      0.10862083     -0.00010848
C       2.10699150     -0.84532006      0.00000596
C       1.38092757      1.51302023     -0.00001422
H      -2.76922956     -0.35519047     -0.88580915
H      -2.76911852     -0.35526591      0.88581130
H      -3.13001929      1.15369350      0.00008232
H       2.73438019     -0.70949918     -0.88581733
H       2.73416912     -0.70955059      0.88598930
H       1.70045156     -1.85095724     -0.00006570
H       1.97927614      1.74988845      0.88504995
H       0.49488788      2.13554971     -0.00050843
H       1.98013579      1.74971021     -0.88453716
