13
b3lypvtz=-237014.66356291
C      -1.72025978     -1.16973246     -0.38062125
O      -1.52030270      0.24618779     -0.37362544
C      -0.24530556      0.70367038     -0.32718988
C       0.10679864      1.84045899     -0.92670017
N       0.59671612     -0.03867610      0.54797338
N       1.76454524     -0.10494042      0.18337594
O       2.51585951     -0.75942582      1.15668066
H      -1.28966436     -1.61860153     -1.27943964
H      -1.28836110     -1.63651052      0.50396284
H      -2.79728920     -1.31616975     -0.38545404
H       1.09139521      2.25156500     -0.78055349
H      -0.61046345      2.37760649     -1.52659729
H       3.39623142     -0.77533205      0.76158838
