19
b3lypvtz=-218449.97147425
C      -2.06726222      0.02446340     -1.01852325
C      -1.06331291     -0.43251484      0.04351434
C      -1.41668342      0.12419264      1.42483923
C       0.34865246     -0.04025900     -0.37460194
O       1.28765861     -0.60060027      0.54389269
C       2.62414384     -0.29342596      0.26487475
O       2.95104831      1.06051421      0.48276623
H      -3.08034522     -0.27790492     -0.74936895
H      -2.06441088      1.11294410     -1.11911362
H      -1.84101315     -0.40214220     -1.99780683
H      -1.08880534     -1.52566981      0.09676724
H      -2.40984885     -0.20548140      1.73526083
H      -0.69856518     -0.20372415      2.17527470
H      -1.41839075      1.21782425      1.41215931
H       0.56493900     -0.41738245     -1.38286571
H       0.45089887      1.05006280     -0.39565510
H       2.86105502     -0.47934759     -0.78769943
H       3.21334048     -0.95626061      0.90334483
H       2.84690133      1.24471180      1.42259764
