13
b3lypvtz=-239677.51466143
N      -2.46785498     -0.40592534      0.69777751
C      -1.60150984     -0.22305268     -0.36337721
N      -0.35050351      0.02763249     -0.32957685
C       0.35070190      0.11217941      0.86944909
C       1.66707333      0.37143167      0.81496256
N       2.41013174      0.67552914     -0.29611234
F       2.39202114      0.41814492      1.94821935
H      -2.07817360     -0.67627691      1.58579742
H      -3.34288951     -0.85472794      0.48621862
H      -2.08877278     -0.25862733     -1.33411318
H      -0.10311075      0.02733691      1.85128633
H       3.33253526      0.26463071     -0.31322494
H       1.88025159      0.52162495     -1.14350635
