16
b3lypvtz=-225336.92000966
C      -0.80343035      0.46827883      0.29985015
C      -2.25856934      0.34902280     -0.09873090
O      -2.70655421     -0.95759007      0.27327873
N      -0.01914564     -0.54576192     -0.38337059
C       1.35292132     -0.55377996     -0.25144270
N       2.00313535      0.41867918      0.24738159
N       3.40723176      0.27785794      0.27880543
H      -0.70779576      0.38792769      1.38976304
H      -0.42371625      1.45156316      0.02066359
H      -2.35807245      0.49630225     -1.17947521
H      -2.83956396      1.12227469      0.41521479
H      -3.59076272     -1.09706779     -0.07568477
H      -0.44998631     -1.45781697     -0.37141721
H       1.83604807     -1.44965117     -0.65225678
H       3.79291075      1.20746069      0.37076013
H       3.76534977     -0.11769935     -0.58790942
