17
b3lypvtz=-191966.3478771
C      -0.14779775      1.57960863     -0.50944248
C      -0.39486480      0.15170160     -0.07482468
C       0.05408958     -0.28282083      1.30396407
C       0.82206729     -0.79809556      0.14106490
N       2.19126948     -0.43853571     -0.04830309
C      -1.59633105     -0.48250006     -0.67704183
N      -2.28286398     -1.47382206     -0.27868225
H      -0.88230104      2.26009206     -0.07362079
H      -0.21326007      1.67275002     -1.59618799
H       0.84085782      1.92892093     -0.21191282
H       0.52593127      0.47779201      1.91421376
H      -0.56746380     -0.96604452      1.86903923
H       0.61452848     -1.82164808     -0.14799543
H       2.44333531     -0.36348907     -1.02569914
H       2.44612108      0.41836638      0.42140552
H      -1.90362883     -0.03424772     -1.62667505
H      -1.94988897     -1.82802801      0.62069808
