16
b3lypvtz=-204458.37411045
C      -2.81506024     -0.08705368     -0.27468059
C      -1.48078532     -0.35205294      0.38923328
O      -0.51633598      0.53755971     -0.17864009
C       0.77987809      0.43339330      0.36647363
C       1.61311354      1.59713815     -0.15881533
C       1.40552691     -0.86563467      0.02198250
N       1.88480767     -1.87635988     -0.24722815
H      -3.57715366     -0.74730860      0.14154309
H      -2.75187289     -0.26758866     -1.34769005
H      -3.12788244      0.94519140     -0.11624779
H      -1.54000023     -0.17949482      1.47149013
H      -1.16739708     -1.38970363      0.23170087
H       0.73312710      0.47793919      1.46331967
H       1.65826984      1.56360478     -1.24610379
H       1.14722416      2.53243532      0.14717579
H       2.62625253      1.55413702      0.23911683
