18
b3lypvtz=-181903.27945435
C      -2.12545480      0.38799913     -0.41527792
C      -0.72838149      0.10719563      0.07349360
C       0.22562841      1.28153842      0.23447935
N       1.55050868      0.65562386      0.30158661
C       1.53429196     -0.51675513     -0.58351876
C       0.11940506     -1.03653078     -0.43397063
C      -0.44635691     -1.07597321      0.96415149
H      -2.68075507     -0.53796730     -0.57248380
H      -2.68581484      0.98756649      0.30726867
H      -2.11311292      0.93565082     -1.36140993
H       0.03898057      1.86811366      1.13891819
H       0.09761717      1.95201936     -0.63107166
H       2.30235623      1.29733000      0.09420244
H       1.71515236     -0.27381813     -1.64238388
H       2.29955013     -1.23251719     -0.27084854
H      -0.25970625     -1.72615127     -1.17586550
H      -1.26878797     -1.75732955      1.13814028
H       0.23377367     -0.95489380      1.79646398
