19
b3lypvtz=-192720.56718896
C      -2.41551706      0.19053262     -1.09706542
N      -1.40697139      0.62289448     -0.14221260
C      -1.57584680      0.15425808      1.22972288
C      -0.49657560     -0.39724498      0.36760065
C       0.95380309     -0.02063423      0.53600485
C       1.72915134     -0.05104817     -0.77905735
N       3.12780193      0.33170644     -0.56316049
H      -3.26433491      0.87537780     -1.06153003
H      -1.99730432      0.21999292     -2.10447042
H      -2.78671803     -0.82784956     -0.90657054
H      -2.42562114     -0.48693776      1.44499971
H      -1.33785084      0.87124248      2.00665246
H      -0.67071348     -1.40849391      0.00191598
H       1.02617946      0.98044530      0.96398996
H       1.41918620     -0.70915975      1.25097659
H       1.28376464      0.67520271     -1.46207388
H       1.61110503     -1.04117686     -1.24565394
H       3.61903046      0.39825085     -1.44646284
H       3.60743143     -0.37735844     -0.01966895
