12
b3lypvtz=-207971.3863331
F       2.27700481      0.00000453     -0.00000047
C       0.92646086      0.00000273     -0.00000078
C       0.25916549      1.21267354      0.00000011
C      -1.13159290      1.20370626      0.00000095
C      -1.82881819     -0.00000098      0.00000101
C      -1.13158965     -1.20370636      0.00000082
C       0.25916873     -1.21266990      0.00000001
H       0.82398371      2.13435507      0.00000009
H      -1.66956055      2.14241108      0.00000133
H      -2.91028296     -0.00000244      0.00000195
H      -1.66955480     -2.14241261      0.00000110
H       0.82398945     -2.13434990     -0.00000011
