15
b3lypvtz=-191218.03799139
C      -2.42004560      0.35062691     -0.45993405
C      -1.55699321     -0.55252861     -0.01582675
C      -0.24202111     -0.31316884      0.68543445
C       0.39363930      1.09491609      0.51555742
N       1.45683819      0.81451711     -0.45834565
C       1.64491280     -0.55336468     -0.44308686
N       0.77033536     -1.26386178      0.14943696
H      -3.34365477      0.04778028     -0.93515244
H      -2.25590064      1.41705925     -0.37218021
H      -1.78386197     -1.60687150     -0.13447677
H      -0.38931744     -0.54289240      1.74466002
H      -0.29957677      1.84263607      0.13616099
H       0.80629531      1.45556340      1.46219857
H       2.26120777      1.41939618     -0.49906365
H       2.49665079     -0.97554048     -0.96503804
