15
b3lypvtz=-216923.78514442
C      -1.37899563      1.27455087      0.00084723
C      -0.55414448      0.00000035     -0.00000102
C      -1.37894273     -1.27458548     -0.00084837
O       0.32334329      0.00079292     -1.15576958
C       1.61249646      0.00044858     -0.66167950
C       1.61249714     -0.00043842      0.66167780
O       0.32334316     -0.00075640      1.15576873
H      -2.01084414      1.31341740     -0.88634190
H      -0.71747393      2.13969376      0.00146273
H      -2.01090897      1.31220630      0.88804226
H      -2.01079008     -1.31347872      0.88634057
H      -2.01085341     -1.31226790     -0.88804406
H      -0.71738455     -2.13970066     -0.00146348
H       2.41447068      0.00092480     -1.37662289
H       2.41447120     -0.00092541      1.37662248
