16
b3lypvtz=-181161.0604266
C      -1.81649195     -1.26718577     -0.29877762
C      -0.94648318     -0.00004216     -0.25372139
C      -1.81650511      1.26707862     -0.29916196
C      -0.09621693      0.00014994      0.97915983
C       1.23962517      0.00016672      1.03579919
C       2.08253733     -0.00000223     -0.11363034
N       2.78691947     -0.00013652     -1.02751024
H      -1.20464753     -2.16943474     -0.30370012
H      -2.48467252     -1.31498600      0.56434529
H      -2.43309418     -1.27018047     -1.19879687
H      -0.29197559     -0.00017144     -1.12785695
H      -2.43311269      1.26979057     -1.19917855
H      -2.48468077      1.31513691      0.56395047
H      -1.20467008      2.16933242     -0.30436511
H      -0.63186216      0.00029027      1.92438922
H       1.75151069      0.00031488      1.98980615
