12
b3lypvtz=-226244.2918314
C       2.43754602      0.32583610     -0.00000220
O       1.39386601     -0.66173865      0.00005046
C       0.16350381     -0.17749039      0.00012596
N      -0.23924987      1.05021817     -0.00008864
C      -1.62978440      0.93362581      0.00000097
C      -1.97489010     -0.36620786     -0.00001456
O      -0.80652277     -1.11037371     -0.00003697
H       2.36617451      0.95278458      0.88798355
H       3.36662840     -0.23561309     -0.00000115
H       2.36614422      0.95271790     -0.88803175
H      -2.26808886      1.79999329      0.00008158
H      -2.89544297     -0.91780913     -0.00004825
