13
b3lypvtz=-234629.02526644
C       2.45219928     -0.93896800      0.02711574
N       1.03047067     -0.69860070     -0.05927807
C       0.49300309      0.55382747     -0.01538935
N       1.09100066      1.67913476      0.01570494
N      -0.94776537      0.64947356     -0.02090952
N      -1.51194353     -0.43472710      0.01320204
O      -2.88718458     -0.25067709      0.00906954
H       2.98568552     -0.47525760     -0.80687158
H       2.88004293     -0.55814039      0.96028935
H       2.62992174     -2.01133764     -0.01723266
H       0.39362995     -1.47199964      0.01506254
H       2.10161452      1.56601741      0.02575947
H      -3.22316389     -1.15543104      0.03769154
