10
b3lypvtz=-246355.52035702
N      -2.63330350      0.07307891     -0.00033418
N      -1.64712924     -0.66699837     -0.00045070
C      -0.39205499      0.10557568     -0.00010849
N      -0.24715028      1.34615725     -0.00013618
O       0.60108712     -0.83264225     -0.00022920
C       1.94926900     -0.53866053      0.00009845
O       2.46312389      0.52871618      0.00054447
H      -3.46528526     -0.53160969     -0.00030061
H      -1.17378128      1.77917889     -0.00016746
H       2.46758155     -1.50518405     -0.00012611
