10
b3lypvtz=-225495.28512779
C       0.99523771      0.05896999     -0.09955735
C       0.38803089      0.90950523      0.72568093
N       1.00329410      1.75991088      1.66398779
C       0.04036097      2.38196045      2.21944115
O      -1.23313476      2.09861088      1.80794848
C      -1.08587561      1.11853289      0.80586167
O      -2.01200940      0.64486236      0.22925637
H       0.40951956     -0.54390307     -0.77862917
H       2.07112430     -0.03871356     -0.10116456
H       0.12115224      3.12606395      2.99807468
