13
b3lypvtz=-237076.85679243
C       2.74745247     -0.23372718      0.00004510
C       1.29044968      0.18711372     -0.00000047
O       0.95317207      1.35950389      0.00003471
N       0.40472601     -0.85371928     -0.00005050
N      -0.97316645     -0.83376945      0.00000292
C      -1.61895788      0.26198792     -0.00002230
O      -2.96565923      0.22752332      0.00003338
H       2.89749438     -1.31296307     -0.00016257
H       3.23071073      0.19218330     -0.87882540
H       3.23054929      0.19181683      0.87918436
H       0.76088822     -1.79232079     -0.00002357
H      -1.20782080      1.26031955     -0.00008101
H      -3.23509648     -0.70315575      0.00008837
