14
b3lypvtz=-201294.29799361
N      -1.68513485      1.95563391     -0.08404803
C      -1.27038027      0.88153861     -0.02973433
C      -0.80130470     -0.47472736      0.04707764
N      -1.79071809     -1.42902356     -0.22742483
C       0.48967908     -0.74654280      0.29640305
C       1.58152268      0.25825117      0.48088875
N       2.67539908     -0.00924988     -0.46445947
H      -2.71667724     -1.18032667      0.08551462
H      -1.54152053     -2.36719040      0.04691492
H       0.79490232     -1.78710439      0.33563269
H       1.99740007      0.14746524      1.48757541
H       1.17243583      1.27323860      0.41899534
H       2.37896252      0.20805523     -1.40918849
H       3.46884610      0.58689729     -0.25982828
