13
b3lypvtz=-190444.84931287
C      -0.27032966     -1.10509088      0.15746831
C       0.83917072     -0.16161911      0.68875719
C       1.31223887      0.34119913     -0.67582512
N       0.33934628      0.48447073     -1.48161955
C      -0.86387161      0.06072188     -0.67439432
C      -0.96871572      1.06324455      0.47572144
N       0.01328674      0.95721121      1.27621277
H       0.09086457     -1.92374268     -0.46326717
H      -0.92218077     -1.47494635      0.94758622
H       1.58134801     -0.53292074      1.38591576
H       2.33421630      0.58858552     -0.93842988
H      -1.73694326     -0.10323645     -1.29539595
H      -1.74843046      1.80612320      0.59727031
