14
b3lypvtz=-203653.90462431
C       2.92369994      0.88551597     -0.13636397
N       2.15467903      0.21419076     -0.87486920
C       1.33790226     -0.81593957     -0.22879096
C      -0.08676494     -0.60422684     -0.46392263
C      -1.26335474     -0.43839414     -0.64356010
C      -2.68732950     -0.19853389     -0.86642648
O      -3.27371028      0.69739459      0.07423113
H       3.00088205      0.74449903      0.94916587
H       3.55329594      1.65158648     -0.58324969
H       1.52859547     -0.87807932      0.85275277
H       1.62583903     -1.77802695     -0.66387377
H      -2.83471387      0.15710447     -1.89350540
H      -3.24115941     -1.13376909     -0.76888799
H      -2.73796099      1.49677850      0.09720041
