18
b3lypvtz=-202809.24537776
C      -3.46657838      0.02742961      0.01115128
N      -2.13473093     -0.55526075     -0.08116160
C      -1.06248648      0.41518671      0.06466234
C       0.29519084     -0.25035364     -0.12814038
N       1.36575566      0.71638944      0.01771163
C       2.69351683      0.37341738      0.02212111
N       3.23298965     -0.78018054      0.03741706
H      -3.64575386      0.59591403      0.93703357
H      -4.21526459     -0.76179310     -0.05512813
H      -3.62674491      0.70573525     -0.82942548
H      -2.03247296     -1.28252406      0.61674096
H      -1.07467443      0.93820343      1.03555687
H      -1.20038469      1.18149225     -0.70582938
H       0.42475817     -1.03147196      0.62819713
H       0.31906629     -0.74450872     -1.10574947
H       1.15124207      1.67480308     -0.20103877
H       3.34580457      1.24707625      0.04069805
H       2.54290012     -1.52938764      0.00586522
