12
b3lypvtz=-200513.20314124
C       1.18518039      0.42639581     -0.42717663
N       1.68060089      0.36668829      0.73498092
C       0.08466689     -0.49706760     -0.81194218
C      -1.26691535     -0.37062619     -0.15359210
N      -0.37058725     -1.49237315      0.14375755
C      -1.52025186      0.66332437      0.81632400
N      -1.77302469      1.48166956      1.58574528
H       1.51359359      1.12478882     -1.20208916
H       2.40717027      1.06415163      0.88103423
H       0.07851800     -0.81011568     -1.85009331
H      -2.13938829     -0.63611648     -0.73849150
H       0.12043741     -1.32071938      1.02154286
