13
b3lypvtz=-213770.83169575
C       3.05455949     -0.36868556      0.09952692
C       1.86778236      0.20644414     -0.11288173
N       0.68592034     -0.51544555     -0.05373482
C      -0.45305673      0.08628364     -0.01435913
N      -0.73969405      1.41620271      0.01678273
C      -1.65542390     -0.80304897     -0.02364628
O      -2.78562272     -0.38050890      0.03942511
H       3.96876607      0.20362632      0.03878515
H       3.12010037     -1.41970869      0.34560425
H       1.83383051      1.26528544     -0.37290399
H      -1.70949514      1.65115572      0.16102068
H      -0.05074351      2.08861583      0.29899590
H      -1.41071611     -1.87466613     -0.09256080
