15
b3lypvtz=-216890.71105278
C      -1.25503973      1.12002646      0.05177217
O      -2.29962797      0.13310706      0.22386373
C      -1.38990681     -0.94186877     -0.11027573
C      -0.19566910      0.02307558     -0.12751365
C       1.03416933     -0.13007671      0.78234796
C       1.84299558     -0.07911715     -0.52294641
O       0.62982837      0.06213885     -1.30474539
H      -1.39941954      1.72356339     -0.84872611
H      -1.15466881      1.76829229      0.92593117
H      -1.38268956     -1.72522430      0.65184286
H      -1.60235639     -1.37465985     -1.09185883
H       1.20070584      0.69603487      1.47101781
H       1.08438186     -1.06947519      1.32963501
H       2.50135963      0.78305303     -0.64463240
H       2.38593731     -0.98896957     -0.78551219
