10
b3lypvtz=-246312.83955341802
C       0.61779141      1.35913525     -1.29180603
N      -0.19446360      0.43984555     -0.96277608
C      -0.00067862     -0.17391244      0.27110024
N       0.87232597      0.03446381      1.13821516
N      -1.07519019     -1.27373640      0.53232315
O      -1.91660043     -1.46917365     -0.31194477
O      -0.96719779     -1.85701976      1.59905465
H       0.47722703      1.84507553     -2.25280064
H       1.44623819      1.68289663     -0.65882538
H       0.74054804     -0.58757455      1.93745971
