16
b3lypvtz=-181117.91162643
C      -2.54062698     -1.13543840      0.36023919
C      -1.85670298     -0.30313404     -0.16928290
C      -1.01961013      0.71606966     -0.79422791
C      -0.05465817      1.41273499      0.18326039
C       0.98984114      0.48050583      0.79829784
N       1.88718547     -0.04072213     -0.22248228
C       2.06945415     -1.28667673     -0.27923505
H      -3.15192086     -1.87060277      0.82050132
H      -1.66443379      1.46769245     -1.25693228
H      -0.44477711      0.26243543     -1.60574268
H      -0.62782826      1.87712973      0.98802190
H       0.46186371      2.20858132     -0.35635111
H       0.50098798     -0.32109544      1.36854823
H       1.59875912      1.06281050      1.49512426
H       2.74185143     -1.69464588     -1.03129846
H       1.58368829     -2.00056053      0.39735353
