15
b3lypvtz=-237786.2802862732
C      -2.18507978     -0.19814746      0.05501749
C      -0.81528738     -0.12866726     -0.52929739
N       0.24875989     -0.43661925      0.15855416
O       0.27297390     -0.86383968      1.35606412
C       1.60090505     -0.30823075     -0.45456292
N       2.35141002      0.64563121      0.32961068
O      -2.78376023      1.09846618      0.14934504
H      -2.84225884     -0.76900678     -0.60259848
H      -2.13885981     -0.69778940      1.02295871
H      -0.65883082      0.24965244     -1.52721476
H       1.49655408      0.05061057     -1.47648390
H       1.99508058     -1.33038002     -0.46006484
H       3.26341979      0.79861498     -0.08087467
H       2.47670561      0.28052664      1.26655255
H      -2.28173206      1.60917857      0.79299420
