14
b3lypvtz=-203677.17180964
C       2.65094903     -0.93512640     -0.00000908
C       1.70002134      0.23889843     -0.00006421
O       2.07761849      1.39183125     -0.00013345
C       0.28697885     -0.09175942     -0.00002194
C      -0.88656240     -0.37067030      0.00005623
C      -2.32664807     -0.64340409      0.00011861
N      -3.20723012      0.52647836     -0.00010439
H       2.47356757     -1.56025423      0.87770550
H       2.47351198     -1.56038667     -0.87761779
H       3.67677141     -0.57411759     -0.00006704
H      -2.56717690     -1.25806663      0.87154120
H      -2.56718846     -1.25840831     -0.87105953
H      -3.01692998      1.10301173     -0.81159224
H      -3.01693474      1.10331888      0.81116613
