10
b3lypvtz=-202133.55697521
C       2.94610916      0.00981386     -0.00002721
C       1.74506060     -0.01318858     -0.00001480
C       0.33263179     -0.01693877      0.00000651
C      -0.52453780     -1.07751288     -0.00000092
O      -1.79183143     -0.65800211     -0.00004376
N      -1.80848579      0.74240271      0.00010451
C      -0.55851291      1.10258993      0.00000857
H       4.00749403      0.02693534     -0.00004632
H      -0.36548246     -2.14212051      0.00002018
H      -0.30481921      2.15062700     -0.00005277
