14
b3lypvtz=-226990.24065624
C       2.51919382      0.50755274      0.49663738
C       1.98662346     -0.52736378     -0.13766999
O       0.66424037     -0.89104047     -0.20097179
C      -0.35364736      0.02646965     -0.16564774
N      -0.34711083      1.25292610     -0.45564913
O      -1.44362842     -0.64813866      0.20299230
C      -2.66653022      0.09968842      0.21880734
H       3.59248547      0.62339337      0.48118331
H       1.93836273      1.23318128      1.04553605
H       2.58745865     -1.25991543     -0.65872974
H       0.57111848      1.57567950     -0.73748685
H      -2.87998033      0.50353946     -0.76972116
H      -3.43253944     -0.60927917      0.51934789
H      -2.60196939      0.92231699      0.92950712
