12
b3lypvtz=-226203.08758896
C      -2.15365214     -0.11111932     -0.16341705
C      -1.00408040     -0.66060108      0.22027704
C       0.32205115     -0.03116396      0.13176664
C       1.49552183     -0.82262973      0.62380968
O       1.37837673     -1.93605491      1.07891167
N       0.42479139      1.15499294     -0.35633092
O       1.72255637      1.64624797     -0.39008964
H      -2.19902517      0.88315589     -0.58716769
H      -3.08409165     -0.65196207     -0.05998253
H      -0.98483377     -1.65691254      0.64181688
H       2.47608308     -0.33448132      0.54891105
H       1.60620258      2.52052813     -0.77600512
