11
b3lypvtz=-210576.22468276
N       2.59518400     -0.18534950     -0.59030645
C       1.67591652      0.10688902      0.03574923
C       0.51457842      0.50684800      0.82425786
C      -0.77719999      0.51817155      0.00814125
N      -1.39535263      1.53632060     -0.40689943
N      -1.38984325     -0.74687824     -0.33488940
N      -0.84312125     -1.71395670      0.21279777
H       0.41301813     -0.19106296      1.65641825
H       0.68724536      1.50583621      1.22473697
H      -0.92381093      2.39961789     -0.13965275
H      -1.34464537     -2.55762187     -0.09599431
