12
b3lypvtz=-200546.73139287
N      -2.60052643      0.29369907      0.00001183
C      -1.61220845     -0.48882788      0.00001667
N      -0.24372090     -0.17171949     -0.00000833
C       0.36869406      1.07196628     -0.00000913
C       1.70665597      0.82113604      0.00001203
N       1.95222080     -0.53848056     -0.00018424
C       0.77778675     -1.09913028      0.00000530
H      -2.33144840      1.27659149     -0.00001539
H      -1.77724775     -1.56376171      0.00006570
H      -0.18760639      1.99106599     -0.00005333
H       2.51231320      1.53565999      0.00014944
H       0.57690653     -2.15841793      0.00006245
