13
b3lypvtz=-234674.36546146
N      -1.85723210     -1.39898010      0.03557166
N      -1.82499321      0.04751832      0.01736410
C      -0.62886358      0.50804819     -0.03165476
N      -0.41753975      1.87213675      0.08144670
N       0.49700847     -0.29382225     -0.16034651
C       1.80568609      0.03378794      0.09573328
O       2.72203549     -0.74501220     -0.02241050
H      -2.73030205     -1.64642406     -0.41562665
H      -1.97152090     -1.68356088      1.00660070
H       0.23294260      2.26254865     -0.58521864
H      -1.29587920      2.37101825      0.09734904
H       0.27530751     -1.26563862     -0.35298393
H       1.93845664      1.07260103      0.43192950
