15
b3lypvtz=-191196.9087057406
C       3.09458960      0.14126821     -0.45202467
C       2.07278534      0.17557203      0.65246774
C       0.76673005      0.08318368      0.46568167
C      -0.47338868     -0.00525618      0.27905085
C      -1.79495655     -0.09875739      0.09518472
N      -2.36234188     -0.23816030     -1.15209387
N      -2.69259664     -0.06297229      1.13921255
H       3.69261473      1.05808019     -0.47657121
H       3.79612983     -0.68990803     -0.32664184
H       2.61704359      0.02951357     -1.42534516
H       2.43919705      0.28354638      1.66832338
H      -1.77055357     -0.27277495     -1.95823902
H      -3.35318036     -0.30571643     -1.27887602
H      -3.68022525     -0.13497995      0.99144282
H      -2.35184725      0.03736146      2.07470938
