18
b3lypvtz=-181887.23671657
C       2.16908785     -1.28020111     -0.03207777
C       1.86768596     -0.01265202      0.25148565
N       0.92679865      0.78348820     -0.40195358
C      -0.03225408      1.60765749      0.30824661
C      -0.49020475      0.47600630     -0.55585268
C      -1.13897147     -0.74198437      0.05858580
C      -2.65577349     -0.57294097      0.17616626
H       2.97839014     -1.77179110      0.48670455
H       1.63989909     -1.84489482     -0.78717428
H       2.44232734      0.52899970      0.99656111
H      -0.12442049      1.46583760      1.38142600
H      -0.11976559      2.63458297     -0.02744664
H      -0.87158940      0.73209142     -1.54096917
H      -0.91642747     -1.62058793     -0.55326746
H      -0.70351401     -0.93703167      1.03957830
H      -2.91153603      0.26691764      0.82474242
H      -3.11070463     -0.38837057     -0.79932714
H      -3.11746662     -1.46970475      0.59139703
