17
b3lypvtz=-194386.43909806
C       2.12551108     -0.69000125     -0.48641726
C       0.97847124     -0.22457545     -0.00636337
C       0.48095692      1.21233016     -0.11367642
C      -1.00524326      1.16121746      0.31869423
C      -1.39602423     -0.32599090      0.24543291
O      -1.81647024     -0.71452624     -1.06316505
C      -0.10414893     -1.04127562      0.66426930
H       2.84086712     -0.04198840     -0.97833071
H       2.39569941     -1.73468383     -0.39672641
H       0.59767969      1.58373905     -1.13297634
H       1.06236413      1.87951508      0.52521881
H      -1.11566500      1.51308186      1.34663711
H      -1.65926419      1.76537088     -0.30791654
H      -2.23949289     -0.56308838      0.89219716
H      -1.05113156     -0.70624208     -1.64888981
H       0.00233966     -0.97750904      1.75321001
H      -0.09654893     -2.09517329      0.38880238
