17
b3lypvtz=-191983.87362058
C       2.37391173     -0.59829098      0.39806446
C       1.18072284     -0.10741388     -0.42328008
C      -0.05310642     -0.96089107     -0.30703117
C      -1.12776056     -0.22154840     -0.02363384
N      -2.43363452     -0.61284056      0.24102842
C      -0.75814502      1.23465331      0.07294800
N       0.70642893      1.21326894      0.05331949
H       2.70752954     -1.58003229      0.05231562
H       3.21468134      0.09290400      0.30798431
H       2.10043531     -0.66922464      1.45127198
H       1.50455366     -0.05333197     -1.47681027
H      -0.03724550     -2.03376772     -0.43811439
H      -3.13996144      0.06236773     -0.00867411
H      -2.67670253     -1.53783777     -0.07841241
H      -1.20304082      1.79536535     -0.76615568
H      -1.14474578      1.68502836      0.99488322
H       1.09316526      1.97171559     -0.48863854
