18
b3lypvtz=-181911.2969672
C       3.39463311      0.18738194      0.00000748
C       2.21595402     -0.44282486     -0.00000373
N       0.97328389      0.15119068     -0.00000525
C      -0.22851683     -0.54265799     -0.00000237
C      -1.46586423     -0.02986621      0.00000007
C      -2.66215923     -0.93990529      0.00000743
C      -1.76885571      1.44251249     -0.00000042
H       4.31129813     -0.38036021      0.00000572
H       3.47252317      1.26719807      0.00001767
H       2.17444059     -1.52600187     -0.00001436
H       0.94363872      1.15687544      0.00001008
H      -0.09518324     -1.61776870     -0.00000317
H      -3.29530784     -0.76787784      0.87729151
H      -3.29531470     -0.76788285     -0.87727261
H      -2.37221256     -1.99107565      0.00000971
H      -0.88169985      2.07639609     -0.00004304
H      -2.36247500      1.71949246     -0.87722370
H      -2.36240643      1.71951030      0.87726399
