13
b3lypvtz=-213764.7577178
C       2.20686387     -0.56713915     -0.20252329
N       1.51325680      0.26248284      0.45226216
C       0.23255185      0.63424315      0.05400112
N      -0.13308890      1.81823050     -0.23169207
C      -0.82821548     -0.47390690      0.01640822
C      -2.26671548     -0.03471673      0.02216237
O      -0.48631166     -1.63194293     -0.03933086
H       1.89289078     -1.01462579     -1.14609057
H       3.18410209     -0.84804832      0.18346134
H       0.65978350      2.46045759     -0.18992189
H      -2.45085249      0.66782542     -0.78973079
H      -2.90728069     -0.90821398     -0.06527721
H      -2.48619418      0.50287530      0.94662749
