14
b3lypvtz=-201239.12080319
N      -3.28172330     -0.00001931     -0.20088253
N      -2.21204648      0.00005698      0.44486366
C      -1.07080370      0.00005589     -0.36558019
C       0.12504871      0.00007357      0.22947179
N       1.32331428     -0.00000830     -0.50607363
C       2.44327401      0.73712549      0.11357949
C       2.44319792     -0.73713974      0.11372291
H      -4.04106785     -0.00006522      0.49288947
H      -1.19214785      0.00000115     -1.44406645
H       0.16951483      0.00013461      1.32009145
H       3.05645874      1.28748656     -0.58734576
H       2.25016740      1.24185629      1.05358819
H       2.25003222     -1.24167209      1.05382425
H       3.05633506     -1.28769989     -0.58707967
