16
b3lypvtz=-181122.92165579
C      -0.05960794      2.40584846      0.07563857
C      -0.08122802      1.20343331      0.12921328
C      -0.03079421     -0.22113264      0.20649511
C      -1.11784705     -0.98762650      0.03976274
C      -2.50725436     -0.51655731     -0.23444150
C       1.33445280     -0.81163810      0.49361947
N       2.27150749     -0.53887024     -0.60453943
H      -0.05895587      3.46603456      0.02529893
H      -0.97966046     -2.06206709      0.10832254
H      -3.19462095     -0.86400144      0.54250702
H      -2.56667254      0.56902512     -0.28763232
H      -2.87299097     -0.92937666     -1.17914253
H       1.67810207     -0.42459646      1.46417538
H       1.22960643     -1.89296239      0.59357725
H       3.19735104     -0.86754337     -0.35515908
H       2.34947553      0.46270875     -0.74514343
