16
b3lypvtz=-227770.50862054
C      -2.15688913      0.20597096      0.68441866
C      -1.38063427     -0.11260010     -0.59922125
C       0.09539213     -0.30971522     -0.36441506
N       0.78120431     -1.36689267     -0.54663642
O       0.67572234      0.81924623      0.08690685
C       2.07618817      0.71371877      0.44681677
O       2.89372498      0.44344749     -0.63274046
H      -3.21575996      0.34269761      0.46358129
H      -2.06616707     -0.60448866      1.40927049
H      -1.78409946      1.11871243      1.14650618
H      -1.49740131      0.71004971     -1.30907679
H      -1.77831194     -1.01045230     -1.07341809
H       0.19919149     -2.13005534     -0.87439177
H       2.14763451     -0.05043776      1.22502203
H       2.33080617      1.69637318      0.83319511
H       2.67939904     -0.46547433     -0.89581754
