18
b3lypvtz=-205201.16563392
C       1.40627676      1.81288438     -0.03324609
C       0.81485892      0.62223372     -0.01865051
C       1.49514421     -0.58800773      0.56193512
O       1.63303542     -1.58350066     -0.45938630
C      -0.57407461      0.40776235     -0.56383788
N      -1.50004754      0.00035092      0.49368284
C      -2.82798931     -0.33834417      0.00052907
H       2.41172410      1.95131036      0.34462361
H       0.90758855      2.68913211     -0.42919381
H       2.47682700     -0.30846360      0.95761073
H       0.88366458     -0.97390518      1.38262176
H       1.61012370     -2.44972213     -0.04536507
H      -0.53826661     -0.40317409     -1.29595768
H      -0.90505800      1.31187871     -1.09741208
H      -1.56859618      0.74429285      1.17806284
H      -3.30046493      0.45534683     -0.59974280
H      -2.76805478     -1.23164014     -0.62431181
H      -3.48404428     -0.56508453      0.84139106
