17
b3lypvtz=-171085.67983499
C      -1.96073836     -0.95449725      0.16939032
C      -0.67558350     -0.59936883      0.10323786
C       0.43771479     -1.44969334     -0.30340080
C       1.60843792     -0.81607849     -0.18208778
C       1.44319876      0.58261718      0.34401156
C      -0.09794406      0.77636803      0.44052473
C      -0.61094292      1.86965794     -0.50334489
H      -2.28362076     -1.95207953     -0.09916035
H      -2.72836205     -0.26485584      0.49613849
H       0.30719007     -2.46639129     -0.64899927
H       2.57386531     -1.24300391     -0.41888115
H       1.93159793      0.69709949      1.31680018
H       1.90640565      1.32319071     -0.31537240
H      -0.37761043      1.04454977      1.46125826
H      -1.69677679      1.95773227     -0.45075592
H      -0.34458910      1.64226259     -1.53764389
H      -0.17920947      2.83951652     -0.24726495
