14
b3lypvtz=-203662.6719545
C       3.12925377      0.50482349     -0.37703846
C       1.99001359      0.14743074     -0.24301343
C       0.64648486     -0.30429742     -0.04472663
C      -0.39058842      0.45421025     -0.45571030
C      -1.83939401      0.13996291     -0.27702022
O      -2.58364290      1.26614869      0.19258434
N       0.54930064     -1.57729197      0.52583163
H       4.13007530      0.83237062     -0.50977526
H      -0.16481728      1.37861600     -0.96927755
H      -1.98790339     -0.71758759      0.39289974
H      -2.30527601     -0.12544771     -1.22981190
H      -2.11224593      1.63473540      0.94699400
H      -0.35833827     -1.82383195      0.88797889
H       1.29707806     -1.80984148      1.16008512
