19
b3lypvtz=-192719.53773457
C      -1.91345210     -1.35393420     -0.08222008
N      -1.65668853      0.06027401      0.14920368
C      -0.34847798      0.56600250     -0.26343421
C      -0.31377177      2.08085620     -0.07172313
C       0.83319778     -0.08305385      0.44364957
C       1.54704247     -1.26720330     -0.08954475
N       2.14460080      0.07169402     -0.20407536
H      -1.24151863     -2.04553607      0.44412207
H      -2.93659796     -1.58451746      0.21753538
H      -1.83168465     -1.56457926     -1.15102316
H      -1.83530627      0.30256974      1.11649926
H      -0.24175151      0.35005402     -1.33196565
H      -1.12838904      2.55193453     -0.62069956
H       0.63496981      2.48817872     -0.41955558
H      -0.42591516      2.33980154      0.98572377
H       0.80496772      0.01002749      1.52790611
H       1.97384742     -1.97248115      0.61417474
H       1.23443671     -1.70329695     -1.03072573
H       2.87685790      0.19504745      0.48604363
