14
b3lypvtz=-203677.28553946
C       1.88810607     -1.53584852     -0.29370884
C       0.94015321     -0.97261431      0.44313063
C      -0.09584216     -0.01929491     -0.09839006
C       0.26823397      1.39759333      0.36197329
O       0.71587457      2.23783007     -0.36936098
N      -1.40139273     -0.34047721      0.46307422
C      -2.32550778     -0.66419348     -0.33194374
H       2.61895026     -2.20116855      0.14619523
H       1.96850996     -1.35466232     -1.35849855
H       0.87377272     -1.17189957      1.50694592
H      -0.07962924     -0.02155786     -1.19430548
H       0.09092665      1.58734878      1.43806612
H      -3.30871575     -0.90208316      0.06732534
H      -2.19773575     -0.72513829     -1.41867010
