20
b3lypvtz=-182674.78424885
C       3.05189656     -0.20091193     -0.00001555
C       1.64083260      0.30523869      0.00002468
C       0.55479104     -0.45876122     -0.00003523
C      -0.89515229      0.00229350     -0.00000003
C      -1.58887606     -0.55146232     -1.25652539
C      -1.58888392     -0.55167196      1.25642861
N      -1.08700892      1.45812566      0.00012122
H       3.60000271      0.15657950      0.87639835
H       3.08806076     -1.29076181     -0.00010277
H       3.60000297      0.15671964     -0.87637210
H       1.52598216      1.38566487      0.00010998
H       0.68430371     -1.53963214     -0.00012021
H      -1.51101947     -1.63878290     -1.30055836
H      -2.64323725     -0.27420939     -1.25329443
H      -1.12792165     -0.14746628     -2.16019857
H      -1.51102408     -1.63899944      1.30028377
H      -2.64324599     -0.27442192      1.25323454
H      -1.12793864     -0.14782330      2.16017210
H      -0.65183363      1.87595422      0.81499874
H      -0.65183360      1.87609053     -0.81468633
