15
b3lypvtz=-191178.86445747
C       2.86187360     -0.49644700     -0.11022416
C       1.70365842     -0.19426989     -0.00156679
C       0.32198402      0.20281234      0.12141335
C      -0.55887056     -0.54418509      1.11589950
C      -0.75122818     -0.75882527     -0.36373541
N      -1.85298577     -0.22410983     -1.11434064
N       0.01494363      1.60940907     -0.04493171
H       3.88287123     -0.76837861     -0.20801635
H      -1.29119808      0.06511381      1.62824021
H      -0.09438053     -1.32102694      1.70669564
H      -0.37382507     -1.69342525     -0.75819568
H      -2.70693028     -0.72765561     -0.90485504
H      -1.99058484      0.74756956     -0.85960792
H       0.42508953      2.15115369      0.70681085
H       0.40958287      1.95226499     -0.91358585
