19
b3lypvtz=-192738.09008981
C      -2.29999484     -1.07310700     -0.52016246
C      -1.52319831     -0.04769623      0.30609609
N      -2.17460385      1.26852743      0.15446688
C      -0.06173892     -0.03279765     -0.05994396
C       0.93616860     -0.26767103      0.78553667
C       2.40280926     -0.23643108      0.45908746
N       2.68015317      0.24356402     -0.89388347
H      -1.90743380     -2.07805941     -0.36526903
H      -3.35501459     -1.05636621     -0.24563753
H      -2.22243579     -0.84651615     -1.58723723
H      -1.61181122     -0.31848739      1.36241456
H      -2.18551293      1.53480838     -0.82561584
H      -1.63071110      1.97706307      0.63487808
H       0.16881148      0.19327189     -1.09784151
H       0.70675814     -0.50735406      1.82142123
H       2.80119261     -1.25390272      0.54072044
H       2.91466248      0.34179130      1.24485018
H       2.46310399      1.23109303     -0.96692710
H       3.66382563      0.14139580     -1.10935447
