15
b3lypvtz=-214516.81680947
C      -1.39970082      1.77822495      0.20199139
N      -0.39445711      0.90279611     -0.38706204
C       0.13886118     -0.10600903      0.48568024
C      -0.56820953     -1.46046898      0.33748056
N      -1.41519093     -1.74756674     -0.54896353
C       1.63101440     -0.30079586      0.27024113
O       2.29594007      0.39426009     -0.45265998
H      -1.05419104      2.29904184      1.10682123
H      -1.69659637      2.52730803     -0.53106421
H      -2.28961961      1.20411010      0.46475033
H       0.36792690      1.42196223     -0.80474272
H       0.05418982      0.16257405      1.55688265
H      -0.29700713     -2.21706125      1.07736388
H      -1.54144124     -0.93108199     -1.15838214
H       2.08202441     -1.13867756      0.83459421
