12
b3lypvtz=-226189.80173248
C       2.67330025      0.94581237     -0.29662572
C       1.73601247      0.23350606     -0.51949093
C       0.59632733     -0.63391130     -0.80545692
C      -0.55304154     -0.44128884      0.14260942
N      -1.67583149     -0.03865369     -0.31107768
O      -2.60934339      0.03908638      0.76551928
O      -0.29903235     -0.74022513      1.42580179
H       3.50256854      1.57690051     -0.09597113
H       0.22520143     -0.45186532     -1.81415581
H       0.91404539     -1.68009976     -0.75320311
H      -3.39906770      0.37792074      0.33549224
H      -1.11113893     -0.56452332      1.92655856
