15
b3lypvtz=-214553.16480001
C       2.48596752     -0.62072851     -0.48158999
C       1.72188011      0.29552086      0.48131487
C       0.23937318      0.30428738      0.20294568
N      -0.30617802      1.45905643     -0.19121857
N      -0.41335988     -0.82596237      0.35642056
C      -1.75875765     -0.87540717      0.10203598
O      -2.50048702      0.03164263     -0.26954351
H       3.54548998     -0.64160300     -0.22518686
H       2.39377627     -0.27396197     -1.51220970
H       2.09261685     -1.63394236     -0.42571855
H       1.85541966     -0.06239758      1.50365606
H       2.11833193      1.31240025      0.43553019
H       0.25314886      2.28833665     -0.28321109
H      -1.30451632      1.45357773     -0.38392185
H      -2.17506647     -1.87959996      0.26960279
