21
b3lypvtz=-172608.10203669
C       3.33221366      0.92315844      0.08143852
C       2.61424446     -0.40804652     -0.17814089
C       1.22116768     -0.43887923      0.37801852
C       0.10999943     -0.61930122     -0.32878965
C      -1.28400157     -0.63139892      0.22432500
C      -2.18014904      0.46901765     -0.36463179
C      -3.61320313      0.41821615      0.16271417
H       2.80643567      1.74972395     -0.39919332
H       4.35345855      0.90057600     -0.30276286
H       3.38364236      1.14021219      1.15048142
H       3.20165055     -1.21549634      0.27317061
H       2.58368071     -0.60972880     -1.25170533
H       1.13716959     -0.29035635      1.45348958
H       0.19513643     -0.76376049     -1.40465220
H      -1.74953247     -1.60269140      0.01704528
H      -1.24909423     -0.53110295      1.31294236
H      -1.73697449      1.44346362     -0.14227963
H      -2.18761286      0.37999070     -1.45520729
H      -4.08837365     -0.53602357     -0.07612128
H      -4.22512002      1.21094038     -0.27072251
H      -3.63881763      0.53597071      1.24839730
