17
b3lypvtz=-194392.43502011
C       0.51946906      1.66453651      0.00005626
C       0.19631768      0.37102734      0.00005387
C       1.20674621     -0.75351975      0.00004042
C       2.67296163     -0.33090982     -0.00001625
C      -1.27763397      0.02754323      0.00004000
C      -1.67817555     -1.43397465     -0.00009898
O      -2.12834261      0.89298723      0.00001683
H      -0.26267446      2.41091909      0.00006876
H       1.54427662      2.00630851      0.00004305
H       1.02172501     -1.39449818     -0.86813898
H       1.02177843     -1.39446748      0.86825497
H       2.91960590      0.26205509     -0.88212464
H       3.31896197     -1.20938231     -0.00002708
H       2.91967091      0.26208073      0.88205638
H      -1.28036259     -1.94908394      0.87682513
H      -2.76258796     -1.50138336     -0.00010689
H      -1.28037728     -1.94885523     -0.87716588
