21
b3lypvtz=-193505.88578249
C       1.91714297      1.17139583     -0.21091647
C       0.92191873      0.02569111      0.00460378
C       1.22143303     -1.10195209     -1.00207659
N       1.07056063     -0.41800753      1.40563367
C      -0.51098376      0.57257250     -0.18184649
C      -1.66288395     -0.39383906      0.12268635
N      -3.00718472      0.16536649     -0.04865985
H       1.74746617      1.96492949      0.51723801
H       2.94559522      0.81879465     -0.09607142
H       1.82068871      1.59124374     -1.21315695
H       0.56426453     -1.95965378     -0.84982895
H       1.09891444     -0.76516093     -2.03443692
H       2.25015050     -1.44953451     -0.88395885
H       0.54987375     -1.27276922      1.56700447
H       2.04234323     -0.63972911      1.59454277
H      -0.62024063      1.44603961      0.46746583
H      -0.61607366      0.92670183     -1.21302217
H      -1.59743606     -1.28086130     -0.51150666
H      -1.58860508     -0.74168724      1.15534031
H      -3.13134477      0.49591842     -0.99934434
H      -3.12784526      0.97368810      0.55173847
