13
b3lypvtz=-237045.19790408
N      -2.81175469     -0.53682093      0.46844007
N      -1.42521930     -0.39462736      0.53426979
C      -0.89089948      0.51693876     -0.15608397
O       0.44808533      0.69717632     -0.22751618
C       1.25201723     -0.21206806      0.51822971
C       2.69873434      0.14662978      0.27158773
O       3.61212561     -0.42497557      0.80354368
H      -3.29807881      0.34926953      0.35334500
H      -3.11907600     -0.97213683      1.32624501
H      -1.41706944      1.24728588     -0.76977377
H       1.02757040     -0.15152474      1.58677229
H       1.06541376     -1.24423453      0.20795165
H       2.85835104      0.97898776     -0.44311101
