16
b3lypvtz=-227765.36178783
C      -0.87466440      1.55833152      0.66914530
C      -0.81426533      0.41203248     -0.34798023
O      -2.09613698     -0.13269939     -0.56303687
C       0.13821284     -0.68537580      0.11339913
O      -0.29256706     -1.79773774      0.33744984
C       1.61133071     -0.37328458      0.33436599
N       2.12303829      0.67088055     -0.54950863
H      -1.62171913      2.27779666      0.33679545
H      -1.17714311      1.18487711      1.64869739
H       0.08682189      2.06386615      0.74886328
H      -0.42475608      0.81195013     -1.29089700
H      -2.04510031     -1.05743457     -0.27379426
H       2.14377754     -1.32948211      0.29452173
H       1.68839946     -0.01579879      1.36624598
H       2.99867689      1.03814288     -0.20109934
H       2.30358979      0.30548748     -1.47654577
