17
b3lypvtz=-194380.2454666
C       1.27949041      0.80730839      0.43652672
C       1.54867445     -0.57113511     -0.17149434
C       0.34347390     -1.51327767     -0.03131260
C      -0.98600723     -0.83536056     -0.29746318
O      -1.52529473     -0.04327747      0.77635206
C      -1.09499265      0.62672539     -0.41439831
C       0.12343505      1.50759912     -0.28648157
H       2.17536975      1.42822178      0.37627642
H       1.03514807      0.70217796      1.49586584
H       2.42667038     -1.02776893      0.28964401
H       1.78624840     -0.44617253     -1.23310017
H       0.45215379     -2.36045731     -0.71246554
H       0.30611799     -1.93107974      0.97872477
H      -1.73867699     -1.44312029     -0.79266632
H      -1.91136167      1.03617601     -1.00528335
H      -0.15309762      2.43097910      0.22989493
H       0.43641569      1.79616486     -1.29594736
