12
b3lypvtz=-226234.77477799
C      -2.51486588      0.55518445     -0.00001689
C      -1.89240282     -0.61430901     -0.00000006
O      -0.53714450     -0.89862887      0.00006446
C       0.42407934      0.04465716      0.00012297
O       0.24578493      1.23363174      0.00012951
N       1.68038312     -0.63907427      0.00016504
C       2.69821345      0.11725117      0.00017805
H      -2.00987961      1.50427996      0.00002032
H      -3.59560489      0.53607234     -0.00007123
H      -2.42354291     -1.55503195     -0.00003883
H       2.62819552      1.20690611      0.00009368
H       3.68261126     -0.34205682      0.00015498
