14
b3lypvtz=-180345.62800482
C      -1.21455694      0.00217843      0.77575833
C      -0.55349321      0.80792156     -0.39955284
C       0.82050616      1.18051637      0.08719121
C       1.53861974      0.06365453      0.24688083
C       0.75355812     -1.09794632     -0.23036753
C      -0.38152142     -0.60478862     -1.03014782
N      -0.70019875     -1.29323452      0.25638085
H      -2.29917452     -0.02652956      0.68642343
H      -0.92442423      0.26270333      1.79513331
H      -1.14392645      1.57320447     -0.89289843
H       1.08789743      2.16977384      0.43144590
H       2.51234018     -0.01700183      0.70700489
H       1.20780746     -2.05588211     -0.43331505
H      -0.70343357     -0.96456955     -1.99993708
