14
b3lypvtz=-201264.17741963
C       2.74082477     -0.56543885      0.08750671
N       1.74616970      0.18743453     -0.16183807
N       0.50272001     -0.32137540     -0.02042010
C      -0.59986169      0.52936517      0.04079841
C      -0.53574013      1.86687269     -0.00099775
C      -1.91571609     -0.14020241      0.10199840
N      -2.19942139     -1.36359034     -0.09139834
H       2.64213291     -1.59722287      0.43437622
H       3.73154195     -0.15941430     -0.06056898
H       0.41300303     -1.22274006      0.43811889
H       0.40355754      2.39164257     -0.07175698
H      -1.45096892      2.43928060      0.00086776
H      -2.73774232      0.53375280      0.34290282
H      -1.37696639     -1.91173913     -0.34994099
