13
b3lypvtz=-242081.41573635
C      -2.02792516      0.50833465      0.62467598
C      -1.24249694     -0.75918748      0.53778230
C       0.05941226     -0.83250989      0.26918070
N       0.89750979      0.22560810      0.02830894
C       2.12898188      0.05044243     -0.21901076
O       2.95297141      1.08063491     -0.45547399
F       0.64235276     -2.07212691      0.22304933
H      -1.39948520      1.37688358      0.44161132
H      -2.84385139      0.51286536     -0.10352584
H      -2.48730447      0.61617926      1.61124185
H      -1.75484168     -1.69808787      0.70292912
H       2.64649672     -0.90236640     -0.26853726
H       2.42818000      1.89333023     -0.39592328
