14
b3lypvtz=-224568.569372701
C      -1.38509490     -0.20525271      0.38916996
C       0.06555821      0.28870372      0.28292299
C       0.99251242     -0.85555278     -0.01629866
N       2.13418705     -0.95236010      0.58176426
N       3.13172397     -1.03233614      1.11843215
N       0.08982941      1.27722273     -0.81935713
O      -1.82440001     -0.75709330     -0.83619348
H      -1.46727128     -0.98230884      1.14869076
H      -2.02346915      0.63653888      0.69401561
H       0.35513537      0.72453550      1.24744346
H       0.74531823     -1.63087884     -0.72384893
H      -0.32657188      2.15423680     -0.52395515
H       1.03970201      1.47077347     -1.10883607
H      -1.52715942     -0.13622838     -1.51725077
