16
b3lypvtz=-202063.84342742
C       2.60249074      0.36599173     -0.01648587
N       1.52594851     -0.61205276     -0.07965233
C       0.22862434     -0.17235702      0.01324566
N      -0.14331265      1.05054946     -0.03007581
C      -1.60689022      1.04497189      0.06542756
C      -2.03796537     -0.43582384     -0.10429676
N      -0.77462606     -1.14330557      0.16985645
H       2.64629963      0.88803404      0.94415669
H       3.54866333     -0.14279271     -0.19513119
H       2.45176380      1.11332631     -0.79211944
H       1.69851988     -1.47273618      0.41530231
H      -1.91116685      1.43336209      1.04259053
H      -2.05264633      1.69395689     -0.69018169
H      -2.38903448     -0.63426730     -1.12184310
H      -2.81940744     -0.73625572      0.59312532
H      -0.62733882     -1.98968531     -0.36188032
