14
b3lypvtz=-227000.44640757
N      -2.35051163     -0.43364078     -0.26110626
C      -1.03835800     -0.16798512      0.04078762
C      -0.04369948     -0.95353849      0.49500722
C       1.23591520     -0.18093433      0.43910203
O       2.14229243     -0.61583259     -0.58906999
C       0.70114603      1.24799664      0.21140794
O      -0.67397233      1.11316703     -0.23293654
H      -2.97041480      0.35598575     -0.16721954
H      -2.71835178     -1.28397804      0.13148464
H      -0.12862973     -1.99125079      0.76994256
H       1.83119117     -0.22539525      1.35186728
H       1.60393365     -0.93475957     -1.32211269
H       0.69360235      1.83020303      1.13444392
H       1.25895592      1.77606052     -0.55848619
