18
b3lypvtz=-202815.79099183
C       2.63986956      0.22653657     -0.03093293
N       1.24907102      0.61791796     -0.14549393
C       0.24143106     -0.33478808      0.00065032
N       0.40295804     -1.56509578      0.31855567
N      -1.03720898      0.16625543     -0.24532255
C      -2.12234290     -0.80290186     -0.22328516
C      -1.42209459      1.46756317      0.28909469
H       3.26255912      1.11042741     -0.15994290
H       2.83511046     -0.17550693      0.96383850
H       2.94732336     -0.52389192     -0.76995864
H       1.06398338      1.29727923     -0.86633190
H       1.38250366     -1.82673135      0.32519926
H      -2.99328604     -0.35842779     -0.70741222
H      -2.39765489     -1.09645161      0.79705803
H      -1.82531698     -1.69997550     -0.75728533
H      -0.57382935      2.14353404      0.32301667
H      -1.82384014      1.38163474      1.30845079
H      -2.19569980      1.90977128     -0.34110036
