15
b3lypvtz=-191190.10372318
C       2.01447471     -1.16095081      0.13020517
N       0.95172556     -0.72845553     -0.40132750
C       0.45140773      0.54204081     -0.05157466
C       1.21153608      1.64235809     -0.02944571
C      -1.01258309      0.58046225      0.19536649
C      -1.94195732     -0.22919218     -0.63734420
N      -1.71354058     -0.58518479      0.76615978
H       2.56014756     -0.61182950      0.90355555
H       2.41307173     -2.12121455     -0.18739789
H       2.26055262      1.61099950     -0.28664604
H       0.77860939      2.60794418      0.19003876
H      -1.36773936      1.53010751      0.57528533
H      -2.92564262      0.16601272     -0.85791212
H      -1.50157275     -0.85355457     -1.40334861
H      -1.07082264     -1.37132413      0.80601568
