14
b3lypvtz=-203696.6744589607
C      -0.44861670     -1.02574934      0.45146421
C      -1.87076712     -0.38292181      0.57853567
C      -1.27322230      0.91978042     -0.00088379
O      -1.73810490      2.00620196     -0.25266897
C       0.04987194      0.29819369     -0.11048199
C       1.22137545      0.79112726     -0.55574647
N       2.40459363      0.13258474     -0.61862444
H      -0.00830198     -1.32766429      1.40426022
H      -0.40173229     -1.87447987     -0.23433759
H      -2.24972585     -0.28240090      1.59580094
H      -2.64485672     -0.83139355     -0.04444917
H       1.24627695      1.81728565     -0.90489278
H       2.48314038     -0.82203948     -0.31809651
H       3.23006950      0.58147553     -0.96602972
