11
b3lypvtz=-213022.4793402
C      -1.86406147     -0.95530980      0.00023326
C      -0.59827293     -0.55076207      0.00000739
N       0.57479801     -1.30474796     -0.00037354
C       1.62470613     -0.42820902      0.00027271
N       1.32340335      0.82848885      0.00021248
C      -0.09161569      0.88275164      0.00001115
O      -0.77366181      1.87514979     -0.00033048
H      -2.64185319     -0.20556371      0.00054881
H      -2.15072219     -1.99799717      0.00013193
H       0.64407631     -2.30637703      0.00155578
H       2.63935447     -0.80479552      0.00050350
