14
b3lypvtz=-180295.0923953
C      -2.71568038      1.80930674     -0.27581547
C      -1.80571433      0.67238911      0.16190322
C      -2.58406578     -0.37837664      0.47109635
C      -2.88042394     -1.31633259     -0.70626638
C      -4.10960939     -0.33351169     -0.89842473
C      -4.05894713      0.08579396      0.51257222
N      -4.03334862      1.13777360     -0.47742650
H      -2.88441987      2.63308560      0.42399124
H      -2.33032558      2.23541765     -1.20489310
H      -0.82639994      0.55430140     -0.28724272
H      -3.28214819     -2.30297334     -0.46533227
H      -2.11730734     -1.39511095     -1.47952046
H      -4.98144006     -0.56388009     -1.49612253
H      -4.78416947      0.01791723      1.31208112
