14
b3lypvtz=-226992.106267
N       2.35492799     -1.06462077     -0.58249673
C       1.34898334     -0.30426419     -0.68016108
O       1.40079214      0.92576849     -1.25766329
C       0.04464025     -0.74107444     -0.10194037
C      -0.72207576      0.15705341      0.86204040
C      -1.28556891     -0.15306295     -0.48566038
O      -1.28918223      0.85473112     -1.47870817
H       3.16761949     -0.62786168     -1.01667550
H       0.49518440      1.21656458     -1.46754244
H       0.04631641     -1.79571245      0.12717022
H      -1.16132936     -0.29442884      1.74020900
H      -0.32564306      1.15349819      1.00392015
H      -2.12083338     -0.83914717     -0.56343099
H      -1.95393130      1.51265670     -1.24886081
