19
b3lypvtz=-171830.19086619
C      -2.93413549     -0.33196997     -0.01749718
C      -1.63440843     -0.09376833     -0.07878644
C      -0.40221572     -0.97968875     -0.08565817
C       0.42613697      0.25793743      0.38766036
C       1.76474836      0.53770092     -0.27620692
C       2.84166969     -0.49107705      0.06987715
C      -0.78931267      1.16293730      0.01776742
H      -3.32583815     -1.34181818     -0.03371997
H      -3.65435465      0.47409346      0.05343542
H      -0.41744041     -1.86259957      0.55355749
H      -0.12088543     -1.28900500     -1.09700871
H       0.54930394      0.22653433      1.47286597
H       1.62266007      0.56990028     -1.36176431
H       2.10607174      1.53625949      0.01558075
H       3.03380822     -0.51332829      1.14491161
H       2.54125802     -1.49661016     -0.23204451
H       3.78423793     -0.26404703     -0.43071748
H      -1.09798620      1.92124459      0.73789056
H      -0.65051277      1.64482454     -0.95462504
