15
b3lypvtz=-216894.3437616
C       2.57240378     -0.79192728     -0.54927780
C       1.67282296     -0.51653837      0.19544769
C       0.57312500     -0.13318215      1.07043235
C      -0.51979878      0.66958507      0.32437691
O       0.00538213      1.79191557     -0.30356439
O      -1.18021277     -0.12043561     -0.64243319
C      -2.17371010     -0.98905900     -0.13525389
H       3.36979672     -1.05328644     -1.19912727
H       0.95093350      0.49016796      1.88442404
H       0.12885463     -1.02054423      1.52770641
H      -1.24652145      1.03917759      1.05708609
H       0.71257690      1.49794283     -0.89345950
H      -2.90581943     -0.44571300      0.47442700
H      -1.75307401     -1.80388837      0.46507464
H      -2.68284109     -1.42248155     -0.99350909
