11
b3lypvtz=-210581.38093439
N       3.87964019      1.25027503     -0.21164802
C       2.90794143      0.62668944     -0.22098722
C       1.73393722     -0.16535440     -0.24156155
C       0.51928113      0.33542387      0.03853187
N      -0.59666443     -0.48356208     -0.00088514
N      -1.65575532      0.14273497      0.28086793
N      -2.73053511     -0.61973412      0.28838315
H       1.84055569     -1.21193692     -0.49585919
H       0.37511464      1.37986989      0.29887359
H      -3.60919112     -0.13652991      0.32924856
H      -2.66452433     -1.56777577     -0.06496397
