9
b3lypvtz=-263809.81947808
C      -0.76208994      0.77147255      0.50676850
C      -1.14195123     -0.47288582      0.29082213
O      -0.28405940     -1.50958890      0.05361770
N       1.11490939     -1.16977483      0.04911205
C       1.38595119      0.04497171      0.26484378
O       0.61011398      1.10648844      0.50297116
F       2.65133492      0.40124818      0.27000544
H      -1.40006020      1.61420541      0.69670220
H      -2.17414869     -0.78613672      0.28218919
