12
b3lypvtz=-221431.61053184
C      -0.50182307      0.34182902      0.02359136
C       0.52444989     -0.57771709      0.08147744
N      -0.01134369     -1.80260813      0.34737817
N      -1.29646300     -1.70884550      0.45274465
N      -1.60838284     -0.39280992      0.26878991
N       1.89192178     -0.28391879     -0.11538216
N      -0.47504833      1.71771193     -0.14319239
H      -2.56474815     -0.09260837      0.34981123
H       2.30310372     -0.90024494     -0.80571082
H       2.42577982     -0.39325573      0.73917729
H       0.45939791      2.01776182     -0.39017482
H      -1.14684402      2.07470570     -0.80850982
