13
b3lypvtz=-237076.13389524
C       2.50511736     -0.24387940     -0.00006523
O       1.13901452     -0.65845410     -0.00007436
C       0.19340096      0.29703208      0.00004373
N       0.32240397      1.55799624      0.00018655
C      -1.20648901     -0.27815718     -0.00003374
N      -1.50581567     -1.50436639      0.00011666
O      -2.15354922      0.67166438     -0.00025267
H       2.73415884      0.34000179      0.89368635
H       3.09339739     -1.15621467     -0.00018820
H       2.73409764      0.34020451     -0.89370056
H       1.27817198      1.89856903      0.00023458
H      -0.66059131     -2.06743849      0.00027045
H      -1.68722345      1.52663019     -0.00024655
