16
b3lypvtz=-181151.51665383
C      -0.18056751      1.75433302     -0.00001846
C      -0.14069132      0.22254170     -0.00001720
C      -1.49229393     -0.32158770      0.00000015
N      -2.55547661     -0.76475777      0.00005253
C       0.82059351     -0.36970218     -1.08697925
C       1.90967528     -0.54085416     -0.00000257
C       0.82059453     -0.36966365      1.08697030
H      -0.69699629      2.12972652      0.88392513
H      -0.69706734      2.12974042     -0.88391342
H       0.83410456      2.15432544     -0.00005313
H       0.46060072     -1.32343473     -1.46770969
H       1.03739505      0.28788193     -1.92755618
H       2.45305548     -1.48317640      0.00001002
H       2.63366970      0.27265246     -0.00002248
H       1.03736154      0.28797874      1.92752175
H       0.46060264     -1.32338265      1.46773448
