14
b3lypvtz=-201311.98672639
N      -2.18617066      0.76500260      0.84794299
C      -1.49143473     -0.45160831      0.40577047
C      -0.04841725     -0.27136083      0.03946860
C       0.57322126     -0.47736041     -1.16354010
N       1.89491582     -0.14101178     -0.96251773
H       2.63032857     -0.17690446     -1.64651902
C       2.01417952      0.25275136      0.33467365
N       0.86811340      0.18642148      0.96433419
H      -1.68957038      1.14894000      1.64496643
H      -2.12641796      1.47025558      0.12079479
H      -2.03262593     -0.87061482     -0.44488020
H      -1.56735504     -1.18143037      1.21523948
H       0.20825476     -0.82431613     -2.11390037
H       2.95287864      0.57103610      0.75826679
