15
b3lypvtz=-237843.01621022
N       2.16431644     -0.09293517      0.70990957
C       1.30740811      0.77556256      0.08931675
O       1.87881589      1.99758600     -0.05415399
N       0.11580729      0.57274107     -0.29842745
C      -0.47628792     -0.74294223     -0.12715272
C      -1.87725459     -0.72551167     -0.72574863
O      -2.67404711      0.28712607     -0.13674464
H       3.13795461      0.15858628      0.72200900
H       1.96154662     -1.07396033      0.63981116
H       1.20592652      2.55510808     -0.46611878
H      -0.54975810     -1.00495830      0.93666068
H       0.11187405     -1.52960099     -0.62511528
H      -1.80154205     -0.58215791     -1.81136517
H      -2.38002572     -1.67637736     -0.54242777
H      -2.12473405      1.08183390     -0.14075273
