13
b3lypvtz=-190413.10705361
C      -0.85324279      1.69377875      0.40315729
C      -0.73651370      0.40483052      0.04585443
C       0.55644726     -0.29883210     -0.06264398
N       1.64444048      0.22971918      0.34063650
N       2.81095564     -0.43733271      0.13236322
C      -1.88963365     -0.38260707     -0.26395572
C      -2.83559535     -1.07417222     -0.53235591
H      -1.82221988      2.16373527      0.47974988
H       0.02663539      2.28065837      0.62276572
H       0.53508909     -1.29772104     -0.50699319
H       3.51049606     -0.16457715      0.80433278
H       2.73426149     -1.44590886      0.02728798
H      -3.68112005     -1.67157095     -0.76607534
