12
b3lypvtz=-231238.62561512
C       2.94736663     -0.61550246     -0.00003369
C       1.86198435      0.16520376     -0.00000504
C       0.51757957     -0.35585188      0.00007241
C      -0.60183392      0.37883751      0.00009708
F      -0.55431931      1.73171328      0.00008760
C      -1.97468360     -0.15299147      0.00010509
O      -2.24576854     -1.33137182     -0.00008038
H       2.86807404     -1.69562794      0.00000837
H       3.94367545     -0.19600618     -0.00009933
H       1.97351330      1.24268905     -0.00003774
H       0.36447904     -1.42821033      0.00010431
H      -2.75679802      0.62954148     -0.00020467
