12
b3lypvtz=-202899.56444158
C       3.45167710      0.54481126      0.05683085
C       2.37646610      0.01779330     -0.05636806
C       1.13035321     -0.63394444     -0.21388654
C      -0.02139427     -0.10954189      0.21092915
O      -1.18467428     -0.81873352      0.10857280
C      -2.38302531     -0.14597647      0.04777828
N      -2.61577854      1.06854379     -0.16425548
H       4.39791033      1.01404914      0.16042646
H       1.11866392     -1.60459276     -0.69668284
H      -0.08590050      0.85277060      0.70299647
H      -3.18418793     -0.85972104      0.20621012
H      -1.78256583      1.62755103     -0.33689920
