12
b3lypvtz=-223833.51644666
C      -3.28382207     -0.05174771      0.00002524
N      -2.11233023     -0.54200071     -0.00000573
N      -1.11143443      0.43770850     -0.00001841
C       0.05187525     -0.08652726     -0.00003795
N       1.16198929      0.72859596     -0.00003908
C       2.46286489      0.27005960     -0.00004816
O       2.78463035     -0.89154933      0.00003677
H      -4.11990115     -0.74074970      0.00001763
H      -3.46846768      1.02181468      0.00001984
H       0.24453016     -1.15403911     -0.00004791
H       0.99450202      1.72431065     -0.00003380
H       3.18680360      1.10100844      0.00013056
