15
b3lypvtz=-214502.28660797
N      -1.09999940      1.86831672     -0.55705234
C      -0.90448826      0.65988053     -0.27826715
C      -1.56099009     -0.46331652      0.51199076
N      -0.53962348     -1.40738498     -0.03399025
C       0.21061932     -0.29235467     -0.69180163
C       1.58784319      0.02052268     -0.13597848
O       1.50120731      0.07400269      1.28697943
H      -1.95440134      2.22134078     -0.12287230
H      -2.58705552     -0.71214021      0.23097548
H      -1.51004254     -0.30490013      1.59304962
H       0.00501261     -1.83366479      0.70519609
H       0.29669877     -0.42412994     -1.77441416
H       1.91682136      0.97723576     -0.55498584
H       2.29528743     -0.75705959     -0.44973028
H       2.34321065      0.37355167      1.63890105
