15
b3lypvtz=-214477.72779479
C       3.24326470     -0.19394279      0.00252284
N       1.99588216     -0.41203620      0.06185503
O       1.27278909      0.77051102     -0.03971058
C      -0.10740201      0.58933124     -0.01559792
C      -0.75528979     -0.57681340     -0.04760583
N      -2.13907634     -0.73061929     -0.11967195
C      -2.99405323      0.42073881      0.07463251
H       3.88914708     -1.05790340      0.07824538
H       3.66402822      0.80127895     -0.11665425
H      -0.58121012      1.55758404     -0.00119317
H      -0.19434765     -1.49903662     -0.06244325
H      -2.46450219     -1.56052518      0.34982628
H      -2.85181744      1.13192040     -0.74253570
H      -4.03504503      0.10224977      0.06110970
H      -2.80023044      0.95257464      1.01755192
