15
b3lypvtz=-193617.55178363
C      -2.25905454     -0.04684643     -0.39676647
C      -1.02559104      0.04441814      0.08572541
C      -0.27881075      1.33937074      0.28373988
C       1.18050923      1.15160850     -0.04112817
C       1.70522359     -0.04784877     -0.28235619
O       1.03889764     -1.23194840     -0.20410652
C      -0.22703696     -1.16666097      0.47784896
H      -2.83038921      0.83180513     -0.66984993
H      -2.74544226     -1.00558653     -0.52777999
H      -0.39569218      1.68171387      1.32071146
H      -0.71301327      2.12191205     -0.34268240
H       1.82001336      2.01976088     -0.11865665
H       2.73517291     -0.19625899     -0.57820900
H      -0.74509141     -2.09168481      0.23656910
H      -0.02082812     -1.14573742      1.55531450
