15
b3lypvtz=-191213.05110458
C      -2.19633598     -0.09349691      0.24420141
C      -0.71286433      0.03670987      0.21076977
C      -0.05620493      1.19705547      0.27791289
N       1.35568953      1.25380010      0.24127237
C       2.06413414      0.04499308      0.13127921
C       1.42202441     -1.12024833      0.06333251
N       0.01186192     -1.17341700      0.09980967
H      -2.56877982     -0.57945583     -0.66478280
H      -2.51771007     -0.71080609      1.09080982
H      -2.67395745      0.88059824      0.33106301
H      -0.57901170      2.13618473      0.36271257
H       1.83402794      2.12872852      0.29226623
H       3.14020843      0.10405840      0.10477080
H       1.94764616     -2.05744390     -0.02108509
H      -0.47072825     -2.04726035      0.04839355
