16
b3lypvtz=-227759.75974721
C      -1.54847304      1.18266993      0.56791733
C      -1.07210028      0.44972667     -0.67745988
O      -2.12535484     -0.30652523     -1.28163669
C       0.13129108     -0.45591639     -0.40935298
N       1.28731391      0.33254264      0.00023425
C       2.33502768     -0.25089529      0.36281815
O       2.48284405     -1.60800455      0.40953499
H      -2.38504547      1.83895536      0.32815442
H      -1.87904300      0.46889765      1.32987938
H      -0.74110442      1.77809968      0.99412003
H      -0.78207634      1.17922911     -1.43624564
H      -2.50236959     -0.88736665     -0.61208969
H      -0.13084915     -1.19796959      0.35640218
H       0.35352757     -1.01452001     -1.32299361
H       3.21027713      0.32014576      0.66813123
H       3.36603472     -1.82906911      0.72278651
