11
b3lypvtz=-236321.49865755
C      -2.44204452     -0.40023136      0.00000282
C      -1.00399150     -0.00358617      0.00005453
N      -0.59154241      1.21667609      0.00007839
O       0.83264627      1.13457933      0.00005599
C       1.22894479     -0.17363153      0.00010597
O       2.35926230     -0.56843620     -0.00024969
N       0.04105626     -0.88927378      0.00001986
H      -0.00121182     -1.89276513      0.00006981
H      -2.94356821     -0.00291729     -0.88132856
H      -2.54708632     -1.48371795      0.00012446
H      -2.94369984     -0.00270001      0.88116044
