17
b3lypvtz=-191955.62666439
C      -1.03613831     -1.21807959     -0.02013136
C      -1.52208176      0.26126498      0.13221544
C      -0.05890493      0.71997033      0.08328367
C       0.41309120     -0.72503403     -0.07055775
C       0.71526394      0.05927167      1.18875449
N       1.39967613     -1.23651329     -0.96919685
N       0.48446500      1.86651474     -0.56724213
H      -1.28763978     -1.89934535      0.79539165
H      -1.34392840     -1.66258235     -0.96493039
H      -2.07952887      0.51520894      1.03746298
H      -2.09366905      0.59269513     -0.73575288
H       1.74279656      0.38952217      1.26681244
H       0.23455462     -0.17984008      2.13261396
H       1.87579174     -0.47304650     -1.43651318
H       2.10216176     -1.78790745     -0.49181968
H      -0.02643187      2.09413236     -1.41171746
H       0.48052200      2.68376830      0.03132707
