17
b3lypvtz=-191983.73823541
C      -3.67427222     -0.27795281      0.00002147
C      -2.49125977      0.33706258      0.00005606
N      -1.25663119     -0.28411083     -0.00004025
C      -0.04506092      0.36324726     -0.00001767
N       1.05199891     -0.26688179     -0.00011064
C       2.29077848      0.50718563     -0.00007267
C       3.49972883     -0.41831513      0.00009070
H      -3.76365299     -1.35649445     -0.00009178
H      -4.58446563      0.30031539      0.00010632
H      -2.43072435      1.41890664      0.00016802
H      -1.21201602     -1.29264120     -0.00016030
H      -0.13812221      1.45570474      0.00012400
H       2.33345428      1.16025007     -0.88036379
H       2.33332721      1.16040998      0.88010754
H       4.42888012      0.15458401      0.00010493
H       3.48967830     -1.06084739     -0.88112842
H       3.48956221     -1.06069971      0.88141649
