14
b3lypvtz=-222154.51623616
C       3.30930805     -0.31005381      0.23108031
N       2.14313986      0.42271932     -0.23285037
N       0.97990676     -0.28278601     -0.17797708
N      -0.02531124      0.43499032     -0.02818096
N      -1.18488616     -0.28099931     -0.07329210
C      -2.39394498      0.35324081      0.09087562
N      -3.55411187     -0.16443364      0.09046482
H       3.30074709     -0.50911225      1.30861951
H       3.35962186     -1.26059680     -0.29684319
H       4.19834514      0.26873283     -0.01433098
H       2.04628392      1.36930757      0.12408789
H      -1.11576328     -1.28183298     -0.21863719
H      -2.27375176      1.42460577      0.23218110
H      -3.52716241     -1.17533682     -0.05109636
