17
b3lypvtz=-191938.49404933
C       2.12193845      0.03116821      0.34830216
N       1.03324536      0.78788917     -0.25315559
C       0.48363659      0.27658327     -1.51159325
C      -0.28481901      0.19948225     -0.25056948
C      -1.57342637      0.90946816      0.15521402
N      -2.14242720     -0.41954367      0.51499647
C      -0.79955269     -1.05676556      0.46474564
H       2.04857431     -1.05353615      0.18794715
H       2.14452381      0.21886375      1.42287186
H       3.06729750      0.37445977     -0.07341757
H       0.88925382     -0.65372956     -1.90115925
H       0.24356266      1.02128817     -2.26165538
H      -2.12544548      1.43477741     -0.62653041
H      -1.41484048      1.58748654      1.00075382
H      -2.58673601     -0.45319538      1.42318479
H      -0.77524934     -1.99998509     -0.08416830
H      -0.32953594     -1.20471130      1.44423333
