17
b3lypvtz=-220278.10515334
C      -2.20455282      0.33658824     -0.70379534
C      -0.83740499      0.43369380     -0.05787118
C      -0.33650057     -0.74516924      0.81722390
C       1.00053127     -0.63337417      0.04384365
C       2.08095137      0.07149284      0.83272558
F       3.13330858      0.42398864     -0.01931732
N       0.30965706      0.19136253     -0.97134825
H      -2.99572314      0.39665130      0.04772759
H      -2.30332853     -0.60566282     -1.24443745
H      -2.35614450      1.15098020     -1.41551807
H      -0.75861058      1.38218420      0.48768372
H      -0.86462420     -1.67453556      0.61225325
H      -0.29977238     -0.58369290      1.89383041
H       1.40998124     -1.56080920     -0.36424666
H       2.48789983     -0.58005781      1.61069560
H       1.71332374      0.99353707      1.29078620
H       0.82110863      1.00272289     -1.29843563
