14
b3lypvtz=-227007.5920713
C      -2.30375392      1.05785489     -0.27052508
C      -1.44329987      0.09445979      0.07773803
N      -1.77405350     -1.24633376      0.22022533
C      -0.00227162      0.41708040      0.33650505
O       0.83151492     -0.39545736     -0.53333522
C       2.15201084     -0.25491427     -0.37136933
O       2.69523808      0.46431342      0.42108375
H      -3.35969248      0.86037604     -0.40005969
H      -1.96027764      2.06485009     -0.44738699
H      -1.20214877     -1.78704172      0.84839989
H      -2.75596926     -1.45455036      0.30183400
H       0.27378027      0.19630959      1.37090077
H       0.20035835      1.46850729      0.14995908
H       2.67112359     -0.90786506     -1.08511260
