13
b3lypvtz=-242097.04939444
C       2.70651148     -0.18979249      0.00013665
C       1.28443997     -0.63765763      0.00005045
C       0.22048860      0.15133079      0.00014645
F       0.35291277      1.51122199      0.00033871
C      -1.19408746     -0.33021578      0.00007527
N      -2.12715761      0.65678554      0.00025869
O      -1.46562317     -1.51769315     -0.00006271
H       3.23024598     -0.58063357      0.87625287
H       3.23027487     -0.58038610     -0.87607264
H       2.79348129      0.89456010      0.00029138
H       1.06188133     -1.69675505     -0.00010263
H      -1.86897164      1.62651467      0.00036981
H      -3.09692442      0.39404867      0.00024470
