20
b3lypvtz=-182661.23101058
C       2.56886843     -0.47409703     -0.16160115
C       1.12451604      0.02885672     -0.29210077
N       0.95282005      1.42409471      0.14197859
C       0.16522454     -0.89381601      0.46922210
C      -1.33516039     -0.72872841      0.26865908
C      -2.09421910      0.55656063      0.46344751
C      -1.96731507     -0.04273866     -0.91410749
H       3.25610525      0.18367445     -0.69798299
H       2.87779972     -0.49697841      0.88705716
H       2.68427826     -1.48151424     -0.56821417
H       0.85615339     -0.00016410     -1.35194648
H       1.18504388      1.51049061      1.12676586
H       1.59340091      2.02987044     -0.35894723
H       0.39152693     -0.81419341      1.54049061
H       0.42194869     -1.92027145      0.19119429
H      -1.87497939     -1.60722380      0.60521513
H      -1.52134053      1.45200293      0.64926402
H      -3.05441259      0.50439071      0.95952207
H      -1.32547405      0.47775281     -1.61052399
H      -2.83596895     -0.50100750     -1.36731216
