16
b3lypvtz=-181135.20028427
C       3.01395661     -0.01874679      0.14445974
C       1.80500497     -0.00430734     -0.40466447
C       0.51764697      0.00380477      0.34268497
C      -0.54644343     -1.08590563     -0.02845434
C      -1.59771613      0.02009396     -0.04962972
N      -2.85229395      0.10057198      0.00414638
C      -0.53655769      1.10446495     -0.02335484
H       3.91177152     -0.02325971     -0.45921060
H       3.14835858     -0.02558117      1.21993978
H       1.71893793      0.00341723     -1.48950449
H       0.70545065     -0.00109161      1.41658038
H      -0.37720786     -1.50572630     -1.02312817
H      -0.69469325     -1.90439306      0.67606887
H      -3.28179925     -0.82635107      0.01883846
H      -0.36433030      1.52793478     -1.01579096
H      -0.68318837      1.92007000      0.68314400
