15
b3lypvtz=-191205.78130065
C      -1.33969005     -0.45047358      0.72858670
C      -0.52789568     -0.55577855     -0.54095577
C      -1.39614092      0.65453651     -0.28833880
N      -0.53823291      1.79315715     -0.00129632
C       0.66999934      1.41545795     -0.09267491
C       0.90974718     -0.03446413     -0.49957953
N       1.89875712     -0.67995437      0.36250332
H      -0.84352877     -0.23324262      1.66677427
H      -2.19979385     -1.10055020      0.81409361
H      -0.79597113     -1.31141313     -1.26520131
H      -2.31595355      0.87021901     -0.81163097
H       1.49482476      2.08488622      0.13300390
H       1.32926660     -0.04459059     -1.51160799
H       1.52661185     -0.80704128      1.29713378
H       2.12800001     -1.60074837      0.00919003
