14
b3lypvtz=-229602.482005
C      -2.78992807      0.16719588      0.00050820
C      -1.46623841      0.02586679      0.00030876
F      -0.98128532     -1.28135383      0.00031115
N      -0.55106758      1.02671882      0.00011578
C       0.72854104      0.88652350      0.00007616
N       1.49399610     -0.22830322      0.00015922
C       2.94158349     -0.20532142      0.00034861
H      -3.43599937     -0.69557647      0.00067145
H      -3.21234893      1.15814922      0.00051604
H       1.31465454      1.80391429     -0.00008049
H       1.02216587     -1.11738730      0.00037680
H       3.28451463      0.82833967     -0.00000247
H       3.34885009     -0.69752622     -0.88570661
H       3.34864295     -0.69685872      0.88687438
