19
b3lypvtz=-218453.48457349
C      -0.62888190     -1.46832085     -0.30276938
C      -0.68760378     -0.01263930      0.18040740
C      -2.03449104      0.60963440     -0.18369108
O      -0.62882563      0.01735695      1.61243102
C       0.45111196      0.84681554     -0.41357174
C       1.86268402      0.30646161     -0.24490615
O       2.13485066      0.13580673      1.15519798
H       0.27575573     -1.96406251      0.05105111
H      -1.48191981     -2.01703881      0.09647763
H      -0.65547323     -1.53560811     -1.39308596
H      -2.06991249      1.65151080      0.13659242
H      -2.21401095      0.56633407     -1.25912775
H      -2.83605120      0.07293245      0.32443882
H       0.29631132     -0.10552833      1.86314786
H       0.39239334      1.83502486      0.04885163
H       0.28021440      0.98237324     -1.48540229
H       2.57663499      1.01318637     -0.68085060
H       1.97599270     -0.64785167     -0.76851701
H       2.99122089     -0.28638745      1.26342610
