17
b3lypvtz=-171024.7753405
C      -0.71394353     -1.27244358      0.07255507
C       0.55348512     -0.98445560     -0.29358237
C       0.79507678      0.20123265     -1.19813100
C       0.66659378      0.94991665      0.16514661
C      -0.85254217      1.08308035      0.45774062
C      -1.66231627     -0.12844520     -0.18531880
C       1.36540729     -0.31968292      0.82814082
H      -0.85474176     -1.80490241      1.00960785
H       1.81806162      0.23733634     -1.57126592
H       0.09505152      0.43574591     -1.99528821
H       1.20349117      1.89499316      0.27818068
H      -1.03420577      1.10673424      1.53436782
H      -1.21100152      2.03290505      0.05320507
H      -2.62910798     -0.25554115      0.30039316
H      -1.85448898      0.07300434     -1.23730992
H       1.09996186     -0.57611643      1.85118606
H       2.44923685     -0.27839437      0.69952346
