13
b3lypvtz=-237081.12308501
N      -1.88049046      1.13566754     -0.44308179
C      -0.89239111      0.14476189     -0.42927085
N      -1.37506217     -1.10823986     -0.79546338
C       0.38092425      0.39353607     -0.09195554
O       1.23973150     -0.70237369      0.08077680
C       2.52697397     -0.46059032      0.37474234
O       3.03398763      0.61842198      0.51146033
H      -2.39655562      1.15874153     -1.31372141
H      -1.53298633      2.05272248     -0.20536676
H      -2.26244597     -1.33142560     -0.36639966
H      -0.70121266     -1.84890029     -0.67564225
H       0.81098642      1.36780854      0.05573611
H       3.04864056     -1.42023030      0.47168605
