13
b3lypvtz=-239470.07269878
O      -0.05605307      0.98249863     -1.95733946
C       0.22265916      0.47774800     -0.90050428
C       1.33602759     -0.50502912     -0.58756072
O       1.13555465     -0.88045506      0.76923843
C      -0.24875007     -0.67451701      1.08982055
C      -0.59869814      0.63028474      0.37528653
O      -1.96269044      0.82958596      0.12258236
H       1.25545362     -1.36251823     -1.26830394
H       2.32651377     -0.06364749     -0.70519536
H      -0.33133675     -0.63212433      2.17247826
H      -0.87826038     -1.48735854      0.70806593
H      -0.16658526      1.46870202      0.94328867
H      -2.03373468      1.21683044     -0.76175697
