15
b3lypvtz=-214548.58261288
N       2.18981669      0.63694360      0.85381652
C       2.01580096     -0.12793355     -0.28799663
C       0.94439201     -0.87157717     -0.59881374
C      -0.29228630     -0.98492949      0.24547029
C      -1.41879043      0.04132852      0.03594608
N      -1.15551209      1.03675115     -0.85139248
O      -2.46436767     -0.03506965      0.65374244
H       2.88512955      1.36136355      0.80057025
H       1.35902636      0.93179456      1.34061107
H       2.88188881     -0.14260768     -0.93889795
H       0.99650410     -1.45967477     -1.50490242
H      -0.76401602     -1.95858254      0.10470041
H      -0.05346770     -0.93764507      1.31231847
H      -1.88748231      1.69141390     -1.06699545
H      -0.31854596      1.01127164     -1.40802486
