13
b3lypvtz=-213754.28009171
C      -1.35406328      0.45525078      0.05020647
C      -0.85761616     -0.95815035      0.28340752
C       0.60514424     -0.95013730      0.18781986
O      -0.20856585     -1.52281731     -0.85508852
C       1.03020838      0.45757939     -0.12664151
N       2.19611718      0.95010024     -0.27216262
N      -0.12926187      1.18442676     -0.23197120
H      -2.06076942      0.49384972     -0.78361260
H      -1.85914447      0.83030812      0.94682083
H      -1.41749152     -1.64539910      0.90443200
H       1.26641356     -1.62957052      0.70908392
H       2.90376057      0.22706608     -0.18354189
H      -0.11473137      2.10749350     -0.62875226
