16
b3lypvtz=-204418.2068086
C      -1.89543153      0.42293897      0.24626966
C      -0.83451940      0.99599492     -0.75636832
C       0.23101260      0.15298727     -0.04578736
C      -0.77800031     -0.39039560      0.89929389
N       0.23568741      0.59463595      1.36286090
C       1.43950380     -0.46402844     -0.67227090
O       2.01325148     -1.38186195      0.25762714
H      -2.64470663     -0.19150988     -0.25051011
H      -2.38508605      1.14402656      0.90018852
H      -1.02138499      0.67603596     -1.78127932
H      -0.66496208      2.07202971     -0.73137342
H      -0.83809461     -1.36529891      1.36070723
H       0.96831870      0.05521135      1.82107423
H       1.15082191     -0.97427452     -1.59953005
H       2.15788977      0.32482857     -0.93368683
H       2.86569992     -1.67131995     -0.07721527
