14
b3lypvtz=-226993.32056059
O       2.35493363      1.18276118      1.40938044
C       1.49710022      0.53126128      0.60935285
O       1.91794066      0.56810863     -0.68349175
N       0.45981618     -0.01471597      1.07384866
C      -0.37407110     -0.73965329      0.15793266
C      -1.85470527     -0.61853782      0.28394351
C      -1.17571985     -0.02650203     -0.92924314
H       3.05841193      1.55364730      0.86346709
H       1.21826797      0.18089672     -1.22937633
H      -0.00243382     -1.72805162     -0.09834819
H      -2.46073581     -1.50345109      0.15005907
H      -2.21219911      0.07419161      1.03243443
H      -1.10876473      1.05226354     -0.97283276
H      -1.31784089     -0.51211846     -1.88592654
