12
b3lypvtz=-231216.14843912
C      -1.42173676      0.45737105      0.75541434
C      -2.33899167     -0.49513116     -0.00819058
O      -3.42339360     -0.18184602     -0.41455151
C      -0.02034431      0.30119910      0.39958827
C       1.12652506      0.13906893      0.08149295
C       2.51836959     -0.02441171     -0.30457951
F       3.18574075     -0.89722677      0.55526361
H      -1.77209602      1.47836044      0.59473553
H      -1.55437456      0.23712380      1.82240838
H      -1.93547753     -1.51655753     -0.15090269
H       2.59543901     -0.43291821     -1.31479860
H       3.04034005      0.93496807     -0.27347958
