13
b3lypvtz=-213723.5456377715
C      -1.14454504      0.81700588     -0.43988451
C      -0.03790385      0.36031179      0.49722043
C      -0.77244769     -0.62076494     -0.39146390
O      -1.71896112     -1.48094927      0.17757902
C       1.36534391      0.74716708      0.21253266
N       2.29409178     -0.15537258      0.15549755
N       3.08366838     -0.96813879      0.09005778
H      -0.86708803      1.38846082     -1.31420748
H      -2.08723078      1.08704838      0.01451691
H      -0.33496835      0.31173840      1.54078880
H      -0.22547279     -1.02831108     -1.23612474
H      -1.25761972     -2.22633338      0.57615438
H       1.70313327      1.76813769      0.11733310
