18
b3lypvtz=-205207.19722361
C       2.55264131      0.19809742      0.34006510
O       1.34487599     -0.48845869      0.58998733
C       0.34472409     -0.28204877     -0.40082519
C      -0.41924555      1.05962160     -0.25132288
C      -1.78433176      0.65096779      0.30821792
N      -2.00226574     -0.63890338     -0.35046826
C      -0.73665707     -1.36351171     -0.21342582
H       3.24550678     -0.06994747      1.13605330
H       2.42183832      1.28668447      0.34208555
H       2.98704822     -0.09514159     -0.62419656
H       0.81175799     -0.35263552     -1.38903748
H       0.11645491      1.75201539      0.39684685
H      -0.54450741      1.53157761     -1.22619049
H      -1.73214988      0.57107555      1.40521372
H      -2.57873021      1.35509852      0.05842313
H      -2.77972618     -1.15251011      0.04384269
H      -0.58391563     -1.79746231      0.78434340
H      -0.66331818     -2.16451882     -0.94961232
