11
b3lypvtz=-215421.07077508
C       0.99470856      0.83322409      0.02270186
C       1.39598962     -0.44043707     -0.08172845
O       0.54500418     -1.49551898     -0.12525858
C      -0.78468409     -1.23702266     -0.05881293
C      -1.29696957     -0.00389699      0.04673734
C      -0.42830221      1.17526705      0.09848969
O      -0.84567930      2.32058550      0.19451276
H       1.72493679      1.62889520      0.05232525
H       2.42384281     -0.76620632     -0.14202206
H      -1.36141594     -2.14901147     -0.10220720
H      -2.36743084      0.13412165      0.09526233
