19
b3lypvtz=-195126.83695527
C      -3.00557074     -0.55239417     -0.05088441
O      -1.74401909     -0.09570076     -0.48260664
C      -1.02422507      0.59067165      0.52719054
C       0.32896328      1.00735310     -0.02759974
C       1.22198683     -0.15983807     -0.38158165
C       2.71384663      0.01466750     -0.43534067
C       2.08931934     -0.79943285      0.67008762
H      -3.47719006     -1.05580607     -0.89332457
H      -2.91619062     -1.26153647      0.78217649
H      -3.64771947      0.27797136      0.27101799
H      -0.89414693     -0.06046221      1.40355251
H      -1.59077274      1.47467708      0.85304863
H       0.16269850      1.63211186     -0.91006583
H       0.82508376      1.63738566      0.71709433
H       0.79597719     -0.83281051     -1.11424064
H       3.11809966      0.98512560     -0.17779001
H       3.26810168     -0.50552876     -1.20427358
H       2.21908508     -1.87268653      0.65224293
H       2.07849076     -0.37113840      1.66426571
