20
b3lypvtz=-205963.52596504
C      -1.91853358      0.70472456      1.19088432
C      -1.22676584     -0.55553948      0.68236485
N      -0.45921107     -0.35279651     -0.54390116
C      -0.04144224     -1.60770448     -1.14622607
C       0.59593113      0.65266514     -0.49266634
C       1.77391925      0.39797406      0.45986302
O       2.77070587      1.41037848      0.33365885
H      -2.59217644      0.45232525      2.01110138
H      -2.50370562      1.16847403      0.39544108
H      -1.21167704      1.44427203      1.56940884
H      -1.99094683     -1.30123983      0.44957218
H      -0.61839285     -0.99209032      1.49336447
H       0.47080466     -1.41011229     -2.08899553
H       0.63162265     -2.21240694     -0.51629673
H      -0.92006597     -2.21809058     -1.36354737
H       0.14709886      1.61680442     -0.23579526
H       1.00281881      0.76471727     -1.50038028
H       2.27738629     -0.53597586      0.21023504
H       1.43074653      0.31875290      1.49767454
H       2.38188342      2.25476816      0.58214018
