14
b3lypvtz=-180366.43149383
C      -1.72124265      1.14904310     -1.40146625
C      -1.17114003     -0.00300052     -1.01293627
C      -0.05760586     -0.16627765     -0.08418612
C       0.40544625     -1.40989375      0.22012023
N       1.47115856     -1.69188757      1.02116467
C       0.55863271      0.96692109      0.51434216
C       1.09784364      1.90710841      1.04055009
H      -2.54960525      1.16216379     -2.09551688
H      -1.36050230      2.10283249     -1.03936093
H      -1.56936530     -0.93268092     -1.40906080
H      -0.06930647     -2.27290801     -0.22975182
H       1.84714104     -0.94407733      1.58278069
H       1.55603486     -2.61605885      1.40353023
H       1.56251080      2.74871573      1.48979098
