13
b3lypvtz=-192872.70895679
C       2.17650309      0.03625668      0.13061040
C       0.84463100      0.09305805      0.06190539
C      -0.05843677      1.23305789      0.17139400
C      -1.33890920      0.85806271      0.04447537
C      -1.48034139     -0.62216338     -0.17362023
C      -0.02821941     -1.11536381     -0.15960947
O       0.33926937     -2.25512546     -0.29987706
H       2.78368899      0.91749707      0.29028702
H       2.68010603     -0.91571996      0.02488342
H       0.27897488      2.24699169      0.33463059
H      -2.18479184      1.52913112      0.09106524
H      -2.05633231     -1.12564403      0.60790686
H      -1.95594245     -0.88003857     -1.12405151
