14
b3lypvtz=-201282.83989652
C      -2.29690928     -0.48090428      0.44685159
N      -1.32447343     -0.45637852     -0.35697163
C      -0.27695389      0.48001068     -0.18503221
N      -0.42337695      1.74048305     -0.27629602
C       1.07153729     -0.14029277      0.00264861
C       2.12714322      0.61980317      0.31672477
N       1.09460036     -1.53367978     -0.08229272
H      -3.11796704     -1.17141467      0.27041534
H      -2.36001640      0.16684766      1.32628782
H      -1.40205297      1.98489372     -0.41734574
H       3.10847258      0.18758699      0.45948415
H       2.00554675      1.68286257      0.44129627
H       0.43308062     -1.92859545     -0.73249022
H       2.01614614     -1.93087136     -0.17363399
