14
b3lypvtz=-226993.49675897
N      -0.78487699     -0.73614592      0.98552368
C      -0.59989364      0.05650069     -0.20926030
C       0.69534743      0.51980329     -0.66766613
C       1.90376207      0.32972856     -0.12672384
O       2.12327915     -0.38563391      1.03141133
C      -1.73429914      0.33902154     -0.87842566
O      -2.94850797     -0.08200743     -0.47078120
H      -0.42569602     -0.24593645      1.79693947
H      -0.24874660     -1.59470739      0.92961455
H       0.69175218      1.10523474     -1.57977797
H       2.78832194      0.74460934     -0.59326853
H       3.06364040     -0.38752421      1.22413400
H      -1.75954080      0.92167744     -1.78878833
H      -2.76464200     -0.58472030      0.34686894
