12
b3lypvtz=-223806.65041292
N       2.89141053      0.42059775     -0.00002439
N       2.27652204     -0.65965742      0.00005470
N       0.91918397     -0.54372359      0.00003414
C       0.20862747      0.63001597      0.00004411
C      -1.13576019      0.75900822      0.00005717
C      -2.09452472     -0.33246447      0.00003473
O      -3.29871775     -0.18405929      0.00004712
H       3.88181085      0.17090743     -0.00000002
H       0.46771385     -1.44089833      0.00014276
H       0.84968529      1.49958785      0.00003560
H      -1.55131907      1.75736718      0.00008227
H      -1.67554027     -1.36270531     -0.00003620
