13
b3lypvtz=-242076.19158193
C      -2.65770617     -0.26067259      0.07264555
C      -1.21308590     -0.63999280      0.10437695
C      -0.19048425      0.19844418     -0.03390897
F      -0.42455680      1.52215636     -0.19827342
C       1.26011419     -0.11185377      0.01988326
N       2.18082290      0.73025602      0.20792671
O       1.59423175     -1.42299970     -0.11252843
H      -3.18423693     -0.81355083     -0.70911415
H      -3.14199857     -0.51477940      1.01871646
H      -2.79088502      0.80309590     -0.10776969
H      -0.97788476     -1.68060669      0.28995401
H       1.79037842      1.66006359      0.33107495
H       0.87439615     -1.90361027     -0.53378524
