18
b3lypvtz=-205196.06651076
C      -2.72595877     -0.40448380     -0.24180585
O      -1.73364929      0.52806358      0.13622882
C      -0.43682420      0.16208765     -0.27086801
C       0.33197553     -0.90772520      0.55378192
C       1.58310379      0.00678742      0.48204499
N       2.43884105     -0.36707044     -0.64423116
C       0.64782845      1.18424994      0.10230788
H      -3.68418883     -0.01327581      0.09581199
H      -2.56272185     -1.38529736      0.22063208
H      -2.75791041     -0.53584904     -1.33074113
H      -0.42631396     -0.07724557     -1.33881157
H       0.43382019     -1.91035445      0.13938563
H      -0.06605507     -0.96391193      1.56745835
H       2.12558747      0.12887041      1.42562455
H       2.92399271     -1.23520317     -0.44560769
H       3.15234761      0.33792210     -0.79367117
H       0.33817494      1.75103243      0.98007661
H       0.99361264      1.86735223     -0.67266223
