13
b3lypvtz=-213770.85045829
N      -0.98835609      1.97150283     -0.16918961
C      -0.00082436      1.24670265      0.19236142
C       0.20749767     -0.19298221     -0.01542047
C       1.57612726     -0.69659972     -0.08912228
O       2.57938472     -0.02162302      0.00536207
C      -0.78536373     -1.12709932     -0.04555671
N      -2.11436933     -0.93156184      0.09003237
H      -1.65310356      1.44170780     -0.73565144
H       0.81237367      1.74518200      0.71921448
H       1.65104419     -1.79632666     -0.24127422
H      -0.49940484     -2.16444605     -0.18680351
H      -2.45806772     -0.04187032      0.41469756
H      -2.71286488     -1.72359914      0.24122933
