16
b3lypvtz=-227762.28555441
C      -1.65689057     -1.39446032      0.09697243
C      -0.97556734     -0.10827168     -0.33655344
O      -1.89186521      0.95245809     -0.15777078
C       0.32255753      0.22925933      0.45816416
N       0.74024534      1.58361278      0.10168179
C       1.39505425     -0.81522518      0.21721748
O       2.40246015     -0.60090195     -0.41001022
H      -1.04330763     -2.27121738     -0.11294852
H      -2.59644779     -1.50256229     -0.44403919
H      -1.88446901     -1.36819220      1.16408038
H      -0.69477472     -0.18495753     -1.39801723
H      -1.35669497      1.75996671     -0.21283581
H       0.05046233      0.20113462      1.51790738
H       1.41617504      1.53503731     -0.65480442
H       1.21246954      2.03022350      0.87718494
H       1.19790805     -1.82099281      0.63590005
