18
b3lypvtz=-181889.74345377
C       0.09030130      1.92114477     -0.00037852
C       0.23346362      0.59537337     -0.07717560
C       1.48515768     -0.06942731     -0.59159088
C       2.27141914     -0.81048413      0.49837165
N      -0.72896896     -0.30964791      0.41359377
C      -1.51885801     -1.12758997     -0.49791586
C      -2.14670188     -0.04465900      0.31455714
H      -0.80153135      2.37938675      0.40368653
H       0.88848943      2.57871544     -0.31215276
H       2.11677870      0.68862773     -1.05560574
H       1.21434013     -0.77901831     -1.38022324
H       1.65811287     -1.57690826      0.97088080
H       3.15569811     -1.29070622      0.07620003
H       2.59895049     -0.11874629      1.27581838
H      -1.64164882     -2.16686784     -0.21989782
H      -1.41773437     -0.94035723     -1.56180354
H      -2.45826478      0.84743982     -0.21782795
H      -2.73656530     -0.29097642      1.18855759
