16
b3lypvtz=-204435.19840345
C      -2.08489921      0.64612894      0.46577970
C      -1.17166364     -0.12915830     -0.46145577
C       0.32022535     -0.10624913     -0.21718441
C       1.25626304      0.83399708     -0.17684245
N       2.59293601      0.65267953      0.18668760
C       0.25333109     -1.59243804      0.01564312
O      -1.18205018     -1.56585329     -0.18655508
H      -1.81224926      0.47614267      1.50738248
H      -3.12179623      0.33774888      0.31845618
H      -2.01628093      1.71637632      0.25658476
H      -1.46184447      0.04686179     -1.50489305
H       0.98969799      1.86606077     -0.37599882
H       2.92685278     -0.29787591      0.13300646
H       3.23847694      1.29081074     -0.25124068
H       0.75514928     -2.22556242     -0.72693446
H       0.51785142     -1.94966966      1.01756441
