16
b3lypvtz=-181150.36443349
C      -1.86826340     -0.02782663      0.23545405
C      -0.53607394     -0.47347153     -0.38320820
C      -0.19894785      0.24595398     -1.67141967
N       0.91847895      0.84130205     -1.73199732
C       1.62746338      0.64744667     -0.45970049
C       0.70258214     -0.15632117      0.44050073
C       0.92974619     -0.49923888      1.70077228
H      -1.86187813      1.04276510      0.44321868
H      -2.70099603     -0.24186865     -0.43731119
H      -2.05278635     -0.55223678      1.17324558
H      -0.59808165     -1.55051117     -0.58174695
H      -0.88097038      0.26335344     -2.51891488
H       2.57187824      0.13160574     -0.65602449
H       1.88808455      1.62197617     -0.03884334
H       0.21578396     -1.07471633      2.27687279
H       1.84398030     -0.21821203      2.20910242
