16
b3lypvtz=-204429.30483447
C      -1.94701437     -1.21173215      0.22862443
C      -0.97449069     -0.80100737     -0.57481181
C      -0.03318076      0.31143902     -0.26825456
C       1.44451704      0.02149582     -0.49785803
N       2.03135722     -0.97097747      0.39694404
C      -0.51096561      1.70599791     -0.30681973
O      -0.30246829      1.03909791      0.94141675
H      -2.11166468     -0.73808130      1.18751028
H      -2.60296933     -2.02475682     -0.05166027
H      -0.81301230     -1.29186840     -1.53044737
H       1.58667897     -0.31099727     -1.53010194
H       2.00138988      0.95328639     -0.38446373
H       1.89753692     -0.68071169      1.35929223
H       1.56388919     -1.86471472      0.29656500
H      -1.54827362      1.90256432     -0.55687539
H       0.18930844      2.50679682     -0.52712389
