14
b3lypvtz=-203651.44952487
C      -2.94418287     -0.87896844     -0.37275638
C      -2.14559788     -0.02652006     -0.10127968
C      -1.17132843      1.01601904      0.22984771
O       0.16331115      0.68726113     -0.12014211
C       0.71960183     -0.37301053      0.62589587
C       2.14846557     -0.59689035      0.20890974
N       2.79366407      0.02900389     -0.67689287
H      -3.65297534     -1.63058983     -0.61755325
H      -1.40648957      1.92625749     -0.32280900
H      -1.23880454      1.25030351      1.30028877
H       0.15355318     -1.30256195      0.47825004
H       0.69221547     -0.15028166      1.70365812
H       2.65161275     -1.40003412      0.75348207
H       2.19824860      0.74527888     -1.09923904
