17
b3lypvtz=-191985.28687231
C      -2.65471299      1.06983339      0.31127076
C      -2.30738881     -0.21857920     -0.43349124
C      -1.03642108     -0.90046900      0.06829291
N       0.14297685     -0.06692965     -0.16111674
C       1.37201717     -0.67580541      0.32661025
C       2.53415483      0.16817024      0.04281006
N       3.45175000      0.81727332     -0.19963082
H      -3.55861045      1.52557137     -0.09512035
H      -1.84472989      1.79465642      0.24051303
H      -2.83079435      0.87155104      1.37099552
H      -2.19979749     -0.01286017     -1.50398457
H      -3.13016627     -0.93281559     -0.34725421
H      -1.11579127     -1.07261640      1.14650511
H      -0.94051877     -1.89258830     -0.40197623
H       0.23324217      0.14228999     -1.14900940
H       1.57489374     -1.67657316     -0.08917519
H       1.29902162     -0.79908790      1.41051511
