11
b3lypvtz=-236343.9789962
C      -1.16195949     -0.63163538     -0.10588667
C      -0.96418467      0.88201023      0.04619253
O      -1.77253843      1.77210197      0.09922800
N       0.42061983      1.01045941      0.11295812
C       0.98079734     -0.25243315      0.01435201
N       0.17535229     -1.22766288     -0.11042121
O       2.31498199     -0.31797666      0.06052375
H      -1.76882342     -1.01319181      0.71801665
H      -1.70049432     -0.84649227     -1.03131157
H       0.92214805      1.87689631      0.21546425
H       2.55410084     -1.25207576     -0.01911588
