18
b3lypvtz=-181878.36629285
C       1.80137340     -0.63740298     -0.55517313
N       0.91727968     -0.02380798      0.40749808
C       0.84665524      1.45131207      0.46411764
C      -0.67576885      1.34918258      0.71928625
C      -0.53918428     -0.09733519      0.24623942
C      -1.28425959     -0.73004779     -0.89502399
C      -1.40188849     -1.27743647      0.51968970
H       2.83606632     -0.42373230     -0.28103038
H       1.64033971     -0.28349017     -1.58703787
H       1.67819412     -1.72206980     -0.54241800
H       1.07389000      1.92888418     -0.49870294
H       1.46475711      1.90431390      1.24087761
H      -1.31518713      2.00013759      0.12730352
H      -0.94065682      1.43203432      1.77266611
H      -0.73198176     -1.32472390     -1.61025177
H      -2.12988886     -0.20098416     -1.31568388
H      -0.91197518     -2.22006104      0.72851092
H      -2.32776462     -1.12477287      1.05913271
