17
b3lypvtz=-217682.69862247
C       1.94572893     -0.71511643     -0.73921862
C       1.17390001     -0.48825151      0.32067408
O       1.72565957     -0.60938972      1.57405103
C      -0.27938385     -0.07653982      0.30069741
C      -0.46238289      1.36897361      0.79615724
C      -0.94881449     -0.27499885     -1.06521568
O      -2.34730797     -0.00569331     -1.02781949
H       2.98212010     -0.99234537     -0.61209770
H       1.56432319     -0.62054556     -1.74233215
H       1.05109611     -0.45827067      2.24229192
H      -0.80133905     -0.74533803      1.00246652
H      -0.07165974      1.50997763      1.80499495
H      -1.51892290      1.63168517      0.79823385
H       0.06489954      2.06116127      0.13773627
H      -0.53584203      0.42817905     -1.78943914
H      -0.75539116     -1.28645092     -1.43329173
H      -2.78688335     -0.72713654     -0.56798876
