18
b3lypvtz=-210214.67189658
C      -0.84805303      1.96169109     -0.14578698
C      -0.72473909      0.53937925      0.36821606
C      -1.89277781     -0.45755696      0.14164972
C      -0.84981359     -1.56843664     -0.13865162
C       0.20778638     -0.45782067     -0.37701726
C       1.59870901     -0.69568305      0.14640321
F       2.38667469      0.44978829     -0.02492644
H       0.09422405      2.50137431     -0.03638629
H      -1.11828230      1.97186580     -1.20457509
H      -1.61807049      2.51346340      0.39867212
H      -0.45547644      0.55072332      1.42862786
H      -2.46133364     -0.20490713     -0.75497377
H      -2.59184540     -0.61555515      0.96218354
H      -0.62788775     -2.14966336      0.75844806
H      -1.04732309     -2.25852626     -0.95751822
H       0.26169823     -0.20027225     -1.43795759
H       2.09418995     -1.51422419     -0.38285082
H       1.58646533     -0.92252082      1.21614950
