11
b3lypvtz=-236292.91656111
C      -1.68030355      0.07223979      0.07171047
C      -0.37409617      0.56529733     -0.15354464
C       0.43000779     -0.50879895      0.11373339
O      -0.31629396     -1.55522876      0.47835833
N      -1.69120233     -1.17680844      0.45463596
N       1.79235929     -0.65277320      0.11770184
O       0.03869563      1.78520258     -0.64085365
H      -2.61883680      0.59499351     -0.03559135
H       2.12154606     -1.59464255     -0.02923393
H       2.27456488      0.03202868     -0.44390088
H       0.02355915      2.43848999      0.06698448
