22
b3lypvtz=-183435.3703534
C      -3.20485581     -0.28111656      0.12792588
C      -1.76197859     -0.48285512     -0.33259051
C      -0.82368468      0.63270623      0.12801794
C       0.64595319      0.42996731     -0.26407836
C       1.46555739      1.70201219      0.00064274
N       1.16809253     -0.76781514      0.40176223
C       2.43768349     -1.27507562     -0.09665377
H      -3.85132195     -1.08661852     -0.22473124
H      -3.61617890      0.65993892     -0.24543560
H      -3.27163528     -0.25828553      1.21825938
H      -1.38078232     -1.43676140      0.03452824
H      -1.73430476     -0.54187913     -1.42560547
H      -0.88114828      0.73218583      1.21934148
H      -1.16692290      1.58922376     -0.27835405
H       0.68302737      0.21829848     -1.33890463
H       1.42080933      1.97334675      1.05917047
H       1.08090918      2.54617657     -0.57535703
H       2.51404895      1.57004941     -0.26864320
H       1.22390687     -0.60382411      1.40067845
H       2.32224372     -1.57691452     -1.13990923
H       3.27873118     -0.56787475     -0.04704455
H       2.71724927     -2.16349205      0.47089283
