16
b3lypvtz=-181142.38349817
C       3.05573855     -0.19463295     -0.00257113
C       1.74873429     -0.46555618     -0.00169694
N       0.82041257      0.56801064     -0.00202265
C      -0.45557018      0.38611930     -0.00085048
C      -1.31055742      1.62697793     -0.00153255
C      -1.13139586     -0.92035045      0.00113071
C      -2.45420953     -1.09653609      0.00235891
H       3.78970542     -0.98791105     -0.00231592
H       3.40288879      0.82964885     -0.00352237
H       1.42684000     -1.50469079     -0.00076843
H      -1.95760160      1.66274642      0.87827494
H      -1.95912170      1.66075269     -0.88029592
H      -0.66558838      2.50097270     -0.00308413
H      -0.50580441     -1.80213930      0.00166684
H      -3.15223477     -0.27063446      0.00195636
H      -2.88257877     -2.09001927      0.00382877
