18
b3lypvtz=-181882.10014992
C       2.36045362      0.37254950      0.08864861
C       1.21652030     -0.15346903     -0.78339248
C      -0.11712945     -0.07223147     -0.10016873
C      -0.68286962     -1.13451011      0.80210771
C      -1.46633388     -0.70041611     -0.41266480
C      -2.10067711      0.65872912     -0.14665671
N      -0.74969028      1.24024999      0.13141870
H       2.45063804     -0.20323261      1.01194272
H       2.19285354      1.41713328      0.35711532
H       3.31454163      0.31540646     -0.43741722
H       1.40910503     -1.19282145     -1.06294224
H       1.16931713      0.42431178     -1.71036750
H      -0.22069486     -2.11064056      0.72417740
H      -1.04076917     -0.88270209      1.79595244
H      -1.73288425     -1.38469721     -1.20486452
H      -2.81325081      0.70077115      0.68275049
H      -2.55198208      1.12146740     -1.02522242
H      -0.63704777      1.58400195      1.08028323
