17
b3lypvtz=-194363.69046773
C      -3.07713971     -0.57786061      0.06581202
C      -1.89873729      0.26904058     -0.30460493
C      -0.74955686      0.31747079      0.36103284
C       0.41600572      1.18994788      0.00026339
C       1.73130988      0.46017590     -0.19051666
C       1.83293936     -0.93732854     -0.61337792
O       2.06326305     -0.56437586      0.75271839
H      -3.95914045      0.03807339      0.26336986
H      -2.87610969     -1.17637182      0.95477002
H      -3.34804557     -1.25643753     -0.74799782
H      -2.01764316      0.89165556     -1.18885749
H      -0.61905519     -0.30098182      1.24415976
H       0.20105327      1.75250441     -0.91302418
H       0.57268664      1.93342197      0.79133339
H       2.56891246      1.11268896     -0.42824270
H       2.71225108     -1.27431857     -1.15298394
H       0.92645846     -1.50698568     -0.78686402
