13
b3lypvtz=-190467.59976297
C      -2.65130841     -0.35459599     -0.00002949
C      -1.66365227      0.53828176     -0.00001205
C      -0.23616533      0.23309346     -0.00005697
N       0.23276173     -1.01799959      0.00006175
N       1.56633720     -0.88316863      0.00003951
H       2.13908175     -1.70872673      0.00001991
C       1.97486952      0.40804539     -0.00009858
C       0.82993496      1.16779569      0.00006190
H      -2.44914525     -1.41729652      0.00001007
H      -3.68606728     -0.04109966     -0.00007747
H      -1.90302490      1.59633009      0.00004142
H       3.01713185      0.67650057     -0.00017538
H       0.76136743      2.24161518      0.00014137
