17
b3lypvtz=-191981.0007818
C      -2.76456620     -0.38921193     -0.00003057
C      -1.49228316      0.02824224      0.00000203
C      -1.12533632      1.48239760      0.00003470
N      -0.46155888     -0.92502217      0.00001045
C       0.90872040     -0.79275013     -0.00000028
N       1.55876637      0.29340672     -0.00001128
C       3.01137213      0.19323329     -0.00000243
H      -3.57470779      0.32246724     -0.00003130
H      -3.02553909     -1.44026381     -0.00005520
H      -0.52251787      1.73860877     -0.87020360
H      -0.52254726      1.73857682      0.87030341
H      -2.03504377      2.07993887      0.00003109
H      -0.78088821     -1.87920571     -0.00000016
H       1.39093973     -1.77987457      0.00000140
H       3.39091827     -0.32838145     -0.88585470
H       3.39091138     -0.32799175      0.88608092
H       3.44109026      1.19386597     -0.00021449
