13
b3lypvtz=-190492.04869924
C       2.20321209     -0.21074748      0.12028878
C       0.71285965     -0.07139908      0.02260222
N       0.22418781      1.14717928     -0.24056846
C      -1.10059452      1.26358469     -0.30284219
C      -1.95194570      0.18624545     -0.10882779
C      -1.34523279     -1.03209381      0.15701870
N      -0.02295648     -1.17185312      0.22404366
H       2.69667308      0.52809677     -0.50730903
H       2.52275855     -0.03832155      1.15165308
H       2.51057498     -1.21640013     -0.15810328
H      -1.48888676      2.25407785     -0.51650836
H      -3.02614212      0.28997157     -0.16268655
H      -1.93450780     -1.92834043      0.32123922
