12
b3lypvtz=-249562.95107832
N      -0.44164098      1.19998694     -1.13865684
C      -0.45308599      0.29157074     -0.02424115
C      -0.87425324     -1.13022756     -0.41018543
O      -1.11892364     -1.44913004     -1.54183217
C       0.88141014      0.23914710      0.71287588
O       1.89143038      0.77359897      0.34355233
O       0.78980716     -0.48273895      1.85058516
H      -0.66735430      0.69111130     -1.98635487
H       0.48119885      1.60302791     -1.24537760
H      -1.18839482      0.58554868      0.74333283
H      -0.96621829     -1.83827887      0.43148532
H       1.66592472     -0.48381624      2.26491653
