18
b3lypvtz=-233519.48003904
C       2.62726736      0.09987862      0.26250569
C       1.48332835     -0.80179067     -0.19652260
C       0.10146952     -0.25211514      0.16169714
C      -0.97946335     -1.24945374     -0.22222878
F      -2.22555971     -0.86138190      0.28078777
O      -0.05825508      0.98508707     -0.51843377
C      -0.96557390      1.90596815      0.06767327
H       2.53630441      1.09179083     -0.17773469
H       2.62943327      0.21098749      1.34919660
H       3.59222089     -0.31604338     -0.03011562
H       1.52899116     -0.93345023     -1.28123668
H       1.59103313     -1.79445411      0.24836894
H       0.04356340     -0.08391292      1.24664169
H      -1.06776801     -1.31206050     -1.30859214
H      -0.75936898     -2.23731347      0.18849682
H      -0.86249037      2.83811048     -0.48578598
H      -0.71636068      2.09048918      1.11929640
H      -2.00004540      1.56245124      0.00766093
