11
b3lypvtz=-233917.19770849
N      -2.30907692      0.33559296     -0.29175230
C      -1.06707802     -0.13186784      0.05460946
N      -0.74807244     -1.11844744      0.81083948
N       0.66556532     -1.21183868      0.74912909
C       1.04454431     -0.27159092     -0.03781331
N       2.30234408      0.03025040     -0.49376351
O       0.00993825      0.47769736     -0.53398321
H      -2.36597960      1.33448238     -0.42028098
H      -3.03624931     -0.02755385      0.30524371
H       3.02444254     -0.43052387      0.03849890
H       2.47962178      1.01379949     -0.63082733
