14
b3lypvtz=-203643.60786528
C       3.03062590     -0.06882733     -0.54825337
C       1.90180392     -0.29347207     -0.20863657
C       0.53356554     -0.53260154      0.21072849
O      -0.09220018     -1.67493932     -0.43604115
C      -1.27673543     -0.89749876     -0.73491136
C      -0.58356469      0.40756000     -0.31804444
N      -1.26453516      1.19440029      0.69573539
H       4.03106858      0.11776130     -0.84998759
H       0.48040631     -0.62900271      1.29984270
H      -1.56979621     -0.99526300     -1.78096028
H      -2.11212816     -1.16475510     -0.08156161
H      -0.23258236      0.97891413     -1.18245698
H      -0.70665505      2.00141557      0.95363380
H      -2.13917300      1.55630855      0.33121297
