16
b3lypvtz=-204472.70903727
C       2.50759510      0.64188061     -0.46798765
C       1.27914224     -0.22285724     -0.33348608
C       0.92878604     -0.87832399      0.95758812
C       0.08365508      0.27743811      0.45665271
C      -1.27877193     -0.03601775     -0.06639559
N      -2.21317159      0.94132697      0.12086703
O      -1.54421829     -1.08135045     -0.63688009
H       3.38590676      0.03503921     -0.69868887
H       2.71516229      1.18359588      0.45714096
H       2.39159381      1.37644005     -1.26762581
H       1.00019179     -0.78476313     -1.21606986
H       0.46279195     -1.85246209      0.92015687
H       1.55470581     -0.68831684      1.81942636
H       0.20460781      1.22689103      0.96334723
H      -2.01908998      1.77497193      0.64380342
H      -3.15558190      0.76172172     -0.17998378
