17
b3lypvtz=-217668.51565334
C      -2.46510997     -0.07386265      0.11003399
C      -1.66894805     -1.17241931      0.76219560
C      -1.11464212      0.22324789      0.70531236
C       0.03767949      0.53806899     -0.20172228
O       1.25364942      0.18707394      0.44442383
C       2.39690877      0.47167594     -0.33116681
O       3.53508560      0.06555195      0.35720889
H      -2.55244243     -0.08448167     -0.96848874
H      -3.34009336      0.30261010      0.62073970
H      -2.00227172     -1.55034130      1.71836042
H      -1.21626265     -1.91794937      0.12229980
H      -1.10649768      0.77673489      1.63591524
H       0.04538092      1.60855229     -0.45129104
H      -0.06403479     -0.01657207     -1.14625697
H       2.50123425      1.55072088     -0.49358810
H       2.30452707     -0.03050215     -1.30865564
H       3.45583728     -0.87810838      0.53506870
