14
b3lypvtz=-227016.7770718
C       2.28073225     -0.68146522      0.33532828
C       1.05841515     -0.28077718     -0.03412994
O       0.71493040      0.04855272     -1.30708289
N       0.00315585     -0.16038616      0.86275415
C      -1.33039429      0.22136077      0.75574617
C      -1.90029429      0.62334427     -0.58146943
O      -2.00259101      0.21602795      1.76913795
H       2.50080651     -0.93127359      1.36086851
H       3.07710373     -0.76381697     -0.38881206
H       1.49159113     -0.05880238     -1.86547116
H       0.23499292     -0.39974438      1.81523835
H      -1.36722896      1.47763744     -0.99550987
H      -1.81667057     -0.18660573     -1.30420928
H      -2.94434883      0.87594846     -0.42248878
