16
b3lypvtz=-181114.87208976
C       1.07779523      2.21458588     -0.12027901
C       0.92896793      0.91839379      0.61826188
C       0.17703798     -0.10389826      0.23278789
C      -0.01045709     -1.53427781      0.75368778
C      -0.90604043     -1.79039024     -0.47200027
C      -0.69756768     -0.37586033     -0.95377341
N      -2.01846432     -0.86247361     -0.52300675
H       0.45015283      2.24854020     -1.01067775
H       2.11386128      2.37737534     -0.43101180
H       0.80536379      3.06183790      0.51507427
H       1.49767181      0.81695643      1.53859489
H       0.92306029     -2.09880493      0.73297215
H      -0.48723228     -1.67461407      1.72691833
H      -0.96942641     -2.70438367     -1.04467929
H      -0.60938832      0.01485946     -1.95712215
H      -2.27533463     -0.50784606      0.39425325
