11
b3lypvtz=-215353.9454717
C       1.71338595     -0.81324700      1.63486008
C       0.93383990     -0.45129460      0.79842105
C       0.00769680      0.04996538     -0.18300672
C      -1.12801907     -0.78216604     -0.65936826
O       0.00999669     -0.58673630     -1.47252521
C      -0.17541206      1.55672514     -0.22299702
O      -0.82476828      2.11240209     -1.06425956
H       2.40378095     -1.14947083      2.36831155
H      -2.02528197     -0.26778766     -0.98637714
H      -1.24388059     -1.77406459     -0.23606807
H       0.32866168      2.10567441      0.59406523
