19
b3lypvtz=-192740.0431001
C       1.46434605     -1.80528491     -0.15984260
C       0.66351192     -0.50257418     -0.27229128
C       1.55924813      0.68220285      0.11016147
N       0.89626418      1.97803989     -0.05968733
C      -0.63124231     -0.60031695      0.57463510
C      -1.74910194      0.31998821      0.15455413
N      -2.86783625     -0.01966390     -0.33791457
H       0.87729739     -2.65879241     -0.50082231
H       2.37527026     -1.76516577     -0.75956476
H       1.75609425     -1.99642970      0.87617157
H       0.37093999     -0.37948299     -1.32177022
H       1.83024172      0.58537912      1.16579780
H       2.49478709      0.59914331     -0.46109212
H       0.74523220      2.17462974     -1.04290732
H       1.47763102      2.72514221      0.29972868
H      -0.37741704     -0.39649771      1.62114194
H      -1.00492700     -1.62742750      0.53020340
H      -1.55422978      1.38351400      0.28107410
H      -2.93377787     -1.03895332     -0.41419570
