17
b3lypvtz=-191967.58823116
C      -0.00851009     -1.26965516     -0.24226020
C      -1.05975101     -0.13241560     -0.29104188
C      -0.25763326      1.18569816     -0.05983423
C       1.16060907      0.86645579     -0.49634055
C       1.30926172     -0.61028051     -0.60454835
N       1.92370940      0.11867609      0.52415079
N      -2.19596097     -0.40221585      0.58193472
H       0.04590627     -1.69177877      0.76352668
H      -0.27152200     -2.07752232     -0.92496667
H      -1.45410185     -0.09537298     -1.31050015
H      -0.68475549      2.01553433     -0.62575995
H      -0.27256744      1.45824401      0.99793701
H       1.69884109      1.53983547     -1.15105120
H       1.96105896     -1.06151615     -1.34138471
H       2.91906055      0.23153243      0.35609202
H      -2.91065683      0.30833389      0.47637197
H      -1.90298812     -0.38355284      1.55330720
