19
b3lypvtz=-192743.57166745
C       2.85161280     -0.35180605     -0.48506645
C       1.77591681     -0.25640469      0.60888224
C       0.71379741      0.77008498      0.33766047
C      -0.55178224      0.53106626     -0.05209225
N      -1.54164877      1.52778082     -0.09707822
N      -1.04195236     -0.71793757     -0.45605982
C      -2.23184447     -1.26344820      0.20074460
H       3.34188717      0.61256535     -0.63186724
H       2.41427793     -0.64324544     -1.44187158
H       3.62134218     -1.08222822     -0.22451996
H       2.27010995     -0.01993309      1.55749764
H       1.32666104     -1.24321731      0.75770184
H       1.00707007      1.80851747      0.45188603
H      -2.03939050      1.54644622     -0.97818581
H      -1.18785354      2.44222958      0.13927503
H      -0.30209880     -1.39940082     -0.51651296
H      -2.51948284     -2.18541466     -0.30408897
H      -3.05624527     -0.56005347      0.12086310
H      -2.07637159     -1.47950515      1.26533731
