16
b3lypvtz=-225341.31199866356
C       1.76173041      0.44417353      0.31699015
C       1.54403582     -0.95497584     -0.13872531
N       0.53027708     -0.26846095      0.64968598
C      -0.71809499      0.12486290      0.00633010
N      -1.68002182     -0.95429888     -0.05616146
N      -1.29635541      1.16681361      0.81910328
O      -0.45081534      0.52397629     -1.34856046
H       2.41281803      0.65546163      1.15604030
H       1.71529016      1.20699590     -0.45002481
H       1.36220526     -1.08571507     -1.19809261
H       2.03580895     -1.77864800      0.36342227
H      -1.25791297     -1.76470286     -0.49491812
H      -1.94697399     -1.20735065      0.88746816
H      -2.10633539      1.55428457      0.35082282
H      -0.62394035      1.90943541      0.96275317
H      -1.28171544      0.42814840     -1.82613343
