11
b3lypvtz=-241290.93070672
C       1.13997330     -0.87358466      0.18494446
C       0.15058873      0.14535829     -0.20462853
O       0.71031609     -0.74751457     -1.17118736
C      -1.31952092     -0.07357900      0.07911960
F      -1.62586143      0.40162545      1.34422733
C       0.57465822      1.52894666     -0.31356709
N       0.88931742      2.63211213     -0.39562438
H       2.16202315     -0.56970742      0.37673318
H       0.79030969     -1.75715777      0.70773937
H      -1.94024226      0.45576660     -0.64516670
H      -1.53156200     -1.14226571      0.03741011
