17
b3lypvtz=-194358.24875578
C      -3.21350803     -0.22523069     -0.11141530
C      -1.78651890      0.01421150      0.05229055
C      -0.60905357      0.21492024      0.18709198
C       0.82905541      0.47862339      0.34508662
C       1.20441240      1.88326382     -0.11757437
O       1.63384830     -0.43054368     -0.40145176
C       1.56470217     -1.77054899      0.04609505
H      -3.76274448      0.04695662      0.79216824
H      -3.62013736      0.35890309     -0.93924828
H      -3.41316462     -1.27880705     -0.31676109
H       1.07943853      0.37391811      1.41141174
H       0.98636496      1.99428700     -1.17903543
H       2.26931555      2.04927370      0.04282777
H       0.63780085      2.63035430      0.43708263
H       1.87765627     -1.85819870      1.09442547
H       0.55492261     -2.18082471     -0.05364821
H       2.24725691     -2.34670396     -0.57589259
