15
b3lypvtz=-216915.47188009
C      -1.84295867     -1.59306582      0.80186785
C      -1.68538681     -0.27122151      0.78640121
C      -0.47753902      0.42917493      0.34717679
C      -0.39562787      1.76915760      0.34462616
O       0.51184269     -0.41765721     -0.04803790
C       1.76337131      0.13989193     -0.43771894
O       2.62704159     -0.89487327     -0.76047464
H      -2.76856651     -2.03837763      1.13942344
H      -1.05677119     -2.25892620      0.47510132
H      -2.48975932      0.37676661      1.11303388
H       0.47401732      2.31552334      0.01686919
H      -1.24332425      2.34631691      0.68014606
H       2.13858156      0.76235698      0.38379312
H       1.64017124      0.74465327     -1.33834626
H       2.80450791     -1.40951993      0.03433872
