14
b3lypvtz=-226999.18850208
C       1.97026441     -1.10850163     -0.24594129
C       0.88186707     -0.36292865     -0.05289476
N      -0.28954891     -0.91029215      0.53661680
C      -1.59056039     -0.75654096      0.12271192
O      -1.99239384      0.01125684     -0.71689901
O       0.85686987      0.93621866     -0.40900467
C       0.23513707      1.88019980      0.47102131
H       1.94868715     -2.17642964     -0.09320687
H       2.88068226     -0.64856916     -0.59505268
H      -0.12538261     -1.67990374      1.16540768
H      -2.26086706     -1.42824753      0.68910787
H       0.53090330      2.85814891      0.10045406
H      -0.84928833      1.79358895      0.43391815
H       0.59684401      1.75636230      1.49431648
