13
b3lypvtz=-216167.27473272695
C      -0.21758717     -0.51059660      0.35196952
C       0.80846001      0.39641959     -0.32893963
C       2.21754982      0.22903296      0.17718161
O       2.55057529     -0.53282335      1.04835849
C      -1.61571189     -0.32450457     -0.19515582
C      -2.61961149      0.11342354      0.52234527
O      -3.50945820      0.50060127      1.16416739
H      -0.20581914     -0.32395556      1.42559006
H       0.09010168     -1.55109844      0.22999917
H       0.54113428      1.45336704     -0.21376462
H       0.82986935      0.23120913     -1.41311309
H       2.96847417      0.87948758     -0.31939938
H      -1.83797674     -0.56056259     -1.22805822
