14
b3lypvtz=-180331.82661793
C      -0.18766416      2.40753017     -0.80993639
C       0.02662330      1.38549477     -0.22051206
C       0.23744460      0.11330251      0.47538370
C      -0.58816677     -1.04010329     -0.19873956
N      -2.01926603     -0.83438414     -0.26882173
C       1.65592240     -0.24196658      0.55315682
C       2.80337455     -0.58466227      0.60847821
H      -0.35708220      3.32032283     -1.32452520
H      -0.14219099      0.22297644      1.49844643
H      -0.19891653     -1.18358467     -1.20683168
H      -0.38400554     -1.95330929      0.36073398
H      -2.23992885      0.01293788     -0.77829856
H      -2.42970679     -0.75139596      0.65347688
H       3.82356300     -0.87315841      0.65798917
