16
b3lypvtz=-227743.55005425
N      -2.94723595      0.24707171     -0.15836808
C      -1.59208397      0.77404935     -0.33156594
C      -0.59934732     -0.37543622     -0.32250979
O       0.71246837      0.16221702     -0.48055137
C       1.71366996     -0.77470505     -0.60715495
C       2.90400588     -0.54122255     -0.06129406
O       3.21066357      0.56218338      0.67758671
H      -3.63560938      0.95483700     -0.37920334
H      -3.10718662     -0.02405028      0.80469989
H      -1.29021949      1.50848610      0.42670216
H      -1.53591580      1.27327562     -1.30003506
H      -0.66201902     -0.93363998      0.61961816
H      -0.82614856     -1.06783904     -1.13927975
H       1.50333141     -1.65824274     -1.19600619
H       3.73548129     -1.21733687     -0.18810443
H       2.41594562      1.11035255      0.71976605
