15
b3lypvtz=-170291.89232967
C       1.96915677     -1.81033156      0.00000840
C       1.47190087     -0.71627415      0.00000956
C       0.86363698      0.57975072     -0.00000371
C       1.63246327      1.68294980     -0.00001177
C      -0.60073956      0.67077660     -0.00000790
C      -1.44657295     -0.36085775      0.00000115
C      -2.93604960     -0.24222919     -0.00000320
H       2.41973305     -2.77132398      0.00001972
H       2.71050524      1.62114793     -0.00000773
H       1.18414282      2.66747271     -0.00002207
H      -0.99422068      1.68280733     -0.00001941
H      -1.03879421     -1.36672108      0.00001260
H      -3.36817646     -0.73503876      0.87577590
H      -3.26082369      0.79857691     -0.00001503
H      -3.36817284     -0.73505754     -0.87577352
