13
b3lypvtz=-190460.06565205
C      -2.35433628     -0.55297503      0.00012893
N      -1.20458021     -1.09069850      0.00022676
C      -0.03789626     -0.30262972      0.00007202
C      -0.14995287      1.13235953     -0.00026596
N      -0.30616630      2.27504581     -0.00053303
C       1.16072853     -0.90911550      0.00028480
C       2.49170899     -0.24686861      0.00027245
H      -3.22349092     -1.20337551      0.00016911
H      -2.52878305      0.52579667     -0.00014535
H       1.13050387     -1.99261161      0.00058974
H       3.06872307     -0.55683913      0.87603046
H       2.41926881      0.83916866     -0.00102875
H       3.06977663     -0.55892407     -0.87402918
