15
b3lypvtz=-191227.36187856
C       1.88007498     -1.47483453      0.12070842
C       0.80701725     -0.42815837     -0.04547211
C       1.25231015      0.93258995      0.03243775
N       1.65601256      2.01078484      0.10793456
C      -0.48395460     -0.71219798     -0.25795623
C      -1.59878121      0.26788247     -0.44525353
N      -2.72757328     -0.09303650      0.42143004
H       2.63992433     -1.38173360     -0.65758207
H       2.38801199     -1.36382437      1.08047487
H       1.44827852     -2.47274266      0.06733589
H      -0.77956050     -1.75538491     -0.29202683
H      -1.94790711      0.19041254     -1.48029575
H      -1.23193460      1.29126500     -0.31060055
H      -3.54588923      0.45148963      0.17807563
H      -2.50946424      0.11954847      1.38795491
