20
b3lypvtz=-182675.04101318
C       0.37877870      1.50139995      0.40460059
C      -0.92380892      1.28034897     -0.37936652
C      -1.75409801      0.04239527      0.00361313
C      -0.96458013     -1.23429622      0.36698511
N       0.25933370     -1.52314951     -0.37027325
C       1.46126140     -0.84094858      0.09569268
C       1.55975556      0.67589115     -0.12235363
H       0.64814632      2.55854618      0.33590882
H       0.22197434      1.30156984      1.47020831
H      -0.66990959      1.23233522     -1.44276026
H      -1.56539027      2.15863037     -0.27283102
H      -2.43553638     -0.17816024     -0.82342122
H      -2.39567351      0.28265665      0.85754946
H      -0.68369098     -1.19767394      1.42223831
H      -1.64138960     -2.08877915      0.26984041
H       0.13469083     -1.42715151     -1.37012009
H       2.32435377     -1.31792255     -0.37743904
H       1.54714739     -1.05287982      1.16626690
H       2.48729157      1.02239807      0.34616159
H       1.66863581      0.87700185     -1.19427527
