14
b3lypvtz=-224609.58826766
C      -2.48301348     -0.37940054     -0.04512449
N      -1.06749436     -0.68590095     -0.05731324
C      -0.21572892      0.26330856      0.00643892
N      -0.48101979      1.60594262      0.04817756
C       1.24209122     -0.15833570     -0.00855942
N       2.26007382      0.58801519     -0.11731662
O       1.38047279     -1.48261932      0.10650294
H      -2.78479185      0.17800368     -0.93961756
H      -2.77257561      0.21420499      0.83279358
H      -3.05426936     -1.30471768     -0.02131093
H      -1.42879040      1.89355008      0.22235923
H       0.22118925      2.21412340      0.43321369
H       2.00445810      1.56094195     -0.24859116
H       0.46520060     -1.83383827      0.10885951
