18
b3lypvtz=-181907.58382421
C       2.33815312      0.94344520      0.28551911
C       1.28424533      0.16362946     -0.00180289
C       1.48146576     -1.27126056     -0.40938267
N      -0.00000413      0.71039455     -0.00002734
C      -1.28424873      0.16361919      0.00179996
C      -2.33817356      0.94342321     -0.28549184
C      -1.48144162     -1.27127210      0.40938653
H       2.21955279      1.97654674      0.58631723
H       3.34348680      0.56157144      0.20727983
H       0.97516081     -1.48907443     -1.35153249
H       2.54427954     -1.46151040     -0.53890848
H       1.10845517     -1.97205078      0.33680443
H      -0.00000831      1.71762524     -0.00003081
H      -3.34350032      0.56153663     -0.20722771
H      -2.21959366      1.97652639     -0.58629256
H      -0.97511945     -1.48907632      1.35152942
H      -1.10843103     -1.97205807     -0.33680472
H      -2.54425052     -1.46153738      0.53892903
