13
b3lypvtz=-192795.27485874
C       2.91040318     -0.66041732     -0.74534891
C       1.76092203     -0.62971842     -0.39845404
C       0.38619665     -0.59201657      0.00253455
C      -0.28961962      0.77935787      0.03227373
C      -1.72847463      0.60213260      0.48738015
O      -1.95935088     -0.41267296     -0.53901962
C      -0.64109561     -0.20756896     -1.03944664
H       3.92713907     -0.69388031     -1.04733300
H       0.08243626     -1.33004712      0.73815528
H       0.27820844      1.69497784     -0.00612623
H      -2.35559225      1.47459955      0.29869416
H      -1.90401046      0.22020135      1.49513092
H      -0.46716218     -0.24484755     -2.10504034
