14
b3lypvtz=-222154.65922047
C      -0.37786388      1.12540200     -0.72785715
C      -0.22855250     -0.23532660     -0.12006174
N      -1.15392404     -1.10146585      0.02812579
N      -2.42090323     -0.77586220     -0.45677738
N       1.03176636     -0.63801528      0.32732227
N       2.10053959      0.14840922      0.30696431
N       3.12774585     -0.39888742      0.77332854
H       0.58620794      1.55243246     -0.98314117
H      -0.99983094      1.04971089     -1.62101898
H      -0.87352763      1.80932032     -0.03254340
H      -3.07523527     -1.43140004     -0.05442319
H      -2.71389855      0.16756758     -0.21769664
H       1.12964976     -1.57198906      0.71748741
H       3.86782655      0.30010395      0.69873327
