12
b3lypvtz=-252115.15962483
C       2.46453075     -0.03423647     -0.17457425
C       1.43980851      0.79141105     -0.29382977
O       0.11093688      0.57076250     -0.21031780
N      -0.19826859     -0.80496567      0.05435369
C      -1.47303657     -0.91435648      0.14057943
N      -2.41014644      0.05067065     -0.02586099
F       1.59110613      2.09780143     -0.53942235
H       2.29833495     -1.07783691      0.02237710
H       3.46307035      0.35597338     -0.28110345
H      -1.82778008     -1.91761624      0.34063003
H      -2.10707776      1.00815615     -0.07310020
H      -3.35147811     -0.12576337      0.27162114
