13
b3lypvtz=-211353.74128157747
C       0.99821760      0.99264730      0.48088120
N      -0.40159816      1.11127976      0.24080542
C      -0.89283450     -0.03488701     -0.19938975
N       0.11853659     -0.90975740     -0.26252554
C       1.37223624     -0.32188228      0.16024654
N       2.42087322     -1.08667960      0.13703529
N      -2.19026380     -0.29268425     -0.53217914
H       1.56689983      1.82466770      0.84253477
H      -0.94372406      1.94337289      0.38327386
H       0.06898253     -1.86884086     -0.55960958
H       3.23750387     -0.57313333      0.45123351
H      -2.46080368     -1.19936971     -0.85818196
H      -2.89402570      0.41526677     -0.45776349
