19
b3lypvtz=-192749.29097704
C       3.12567912     -0.11350926      0.05198920
C       1.66500446     -0.53960076     -0.03415089
N       0.79252163      0.61978291      0.00664178
C      -0.47448012      0.44457530     -0.02833609
C      -1.37257731      1.65285234      0.00271292
N      -1.09485482     -0.78422866     -0.13302165
C      -2.50959336     -1.02675119      0.08396107
H       3.30712312      0.43375413      0.97772377
H       3.37650123      0.54645565     -0.77906439
H       3.79169460     -0.97831956      0.02273366
H       1.44604056     -1.23190960      0.79599276
H       1.50923844     -1.11344310     -0.96082644
H      -1.99718880      1.70778779     -0.89190011
H      -2.04010570      1.63784099      0.86734031
H      -0.74675763      2.53825142      0.05306457
H      -0.49594818     -1.58250158     -0.01331118
H      -2.73433545     -2.05358226     -0.20166574
H      -3.11866246     -0.37432923     -0.54036835
H      -2.82014031     -0.88940635      1.12583981
