16
b3lypvtz=-227751.95467142
C       2.24234633     -0.32150803      0.94530323
O       1.73491867     -0.34986234     -0.37500675
C       0.97137194      0.81922990     -0.72743122
C      -0.33009121      0.97803150     -0.00099968
C      -1.27614600      0.01750883     -0.01294036
N      -1.10289204     -1.25639760     -0.48082067
O      -2.53065409      0.17032731      0.50488550
H       1.44134577     -0.25456580      1.68812395
H       2.92428403      0.52660238      1.08796226
H       2.79520597     -1.24723724      1.09710849
H       1.58830554      1.71300616     -0.57997571
H       0.81910507      0.70025384     -1.80412950
H      -0.51348604      1.88233210      0.56372460
H      -0.18954355     -1.48274662     -0.83891811
H      -1.89734806     -1.70446939     -0.90498414
H      -2.67281133      1.10679101      0.67650112
