12
b3lypvtz=-226238.80201456
C       0.97892591      0.94820755      1.32842060
C       0.65548666      0.04963156      0.39846180
C       1.61856777     -0.89915584     -0.07325517
N       2.39084085     -1.65871961     -0.46686063
C      -0.72535068     -0.06247820     -0.23098620
O      -1.53407775      0.94373703      0.32059855
O      -1.27639865     -1.34604773     -0.05563023
H       0.24866301      1.66850385      1.66425900
H       1.97023137      0.97676730      1.75745932
H      -0.64174921      0.04811503     -1.31635189
H      -2.40070309      0.88016044     -0.09450467
H      -1.28443618     -1.54872137      0.88845737
