16
b3lypvtz=-202021.26805796
N       3.21521305      0.29467316      0.02524502
C       1.96920570     -0.21480775     -0.31793577
N       0.94720936     -0.04601667      0.41463028
N      -0.20644973     -0.76611610      0.10198661
C      -1.40727151     -0.09821856      0.52439851
C      -2.66401662     -0.32746937     -0.25021085
C      -2.01810141      1.04131542     -0.25210422
H       3.17345436      0.97386371      0.77208340
H       3.77328052      0.61076573     -0.75317024
H       1.96439685     -0.83018011     -1.22293157
H      -0.25031082     -1.03039244     -0.88071343
H      -1.48810096     -0.05121840      1.60239448
H      -2.59854443     -0.91314651     -1.15851854
H      -3.58637427     -0.47016468      0.29487799
H      -2.50062941      1.84137515      0.29287357
H      -1.51350269      1.35379641     -1.15655725
