15
b3lypvtz=-216887.58193914
C       0.14761923      0.90570648     -0.96936293
C       0.92140128      0.07789248      0.07959878
C       0.07141987     -1.15902680     -0.33981433
C      -0.89994096      0.05356899     -0.22045482
C      -0.18891231      0.43703731      1.11213247
O      -2.25199080      0.10038666     -0.51462035
O       2.29460066      0.16092271      0.23503975
H       0.32299540      0.65129594     -2.01380413
H       0.10598741      1.98150373     -0.80403298
H       0.24161143     -1.54961142     -1.34231812
H      -0.04012384     -1.95172729      0.40232111
H      -0.25271194      1.48136805      1.41520618
H      -0.31781047     -0.24852839      1.95170795
H      -2.72122105     -0.50617339      0.06756427
H       2.56707612     -0.43461509      0.94083714
