15
b3lypvtz=-214514.49786703
N      -2.40660136     -0.99221310      0.04342570
C      -1.91094480      0.37915784     -0.08142140
C      -0.51389082      0.47049759      0.47252717
C       0.49909723      1.43684455     -0.06017485
N       0.57659285      0.03063351     -0.39174154
C       1.61855945     -0.78421627      0.01820391
O       2.78266712     -0.46963275      0.02710653
H      -1.91976626     -1.59534442     -0.60993578
H      -3.39039515     -1.04065358     -0.19070950
H      -2.55974159      1.03180243      0.50802491
H      -1.90638613      0.76470647     -1.10988506
H      -0.42308714      0.20191277      1.52055263
H       1.25314200      1.82082525      0.61577781
H       0.22643361      2.09778453     -0.87367386
H       1.26909299     -1.79667282      0.28377932
