17
b3lypvtz=-191994.3540077
C      -2.40173891      0.00973125     -0.10746072
C      -0.94770579      0.03043904      0.35308607
C      -0.16078171      1.19327836     -0.26916288
C       1.30644035      1.13160179      0.15196740
N       1.79620021     -0.23120188     -0.01376371
C       0.92897027     -1.28681498     -0.10928197
N      -0.33379814     -1.26934843      0.05849854
H      -2.92578571     -0.82847351      0.35119677
H      -2.91692160      0.93480823      0.16045908
H      -2.45596108     -0.11633587     -1.19066499
H      -0.94191641      0.15988530      1.44369233
H      -0.23149205      1.12047194     -1.35807587
H      -0.58871333      2.15381046      0.02277709
H       1.91174329      1.80807533     -0.45435417
H       1.41235630      1.44899141      1.19481527
H       2.75185562     -0.37833624     -0.28369386
H       1.41513470     -2.23312919     -0.34185535
