13
b3lypvtz=-213778.97769744
C      -0.28741514     -0.92216618     -0.41848497
C       1.13889034     -0.80019192      0.04106842
C       1.23677290      0.41309497      0.61974848
N       0.04976730      1.16137157      0.62647583
C      -0.82826229      0.41691142      0.03835265
N      -2.10463106      0.81907750     -0.20123652
O       2.29253366      1.02345559      1.19905488
H      -0.40153588     -1.03382959     -1.50140974
H      -0.83645397     -1.74771785      0.04765250
H       1.90379112     -1.55025525     -0.07074184
H      -2.41196717      1.65414324      0.26962406
H      -2.80672906      0.12794755     -0.39484768
H       3.05523926      0.43815895      1.14698394
