13
b3lypvtz=-213696.98119763707
C       1.45315526     -0.57331150      1.09803266
C       0.99845186      0.06697163      0.01753463
C      -0.35212859     -0.07153268     -0.57694161
C      -1.56776003      0.45013375      0.10855562
N      -1.27687357     -0.98693431      0.10219143
N       1.95448264      0.96030006     -0.58107302
O       1.55709768      1.54455630     -1.56842862
H       0.83270240     -1.28044083      1.62907283
H       2.45851544     -0.37477860      1.44278220
H      -0.36616683     -0.02394012     -1.65854539
H      -1.46378520      0.92954909      1.07355252
H      -2.37233777      0.82837679     -0.51006682
H      -1.85535328     -1.46894958     -0.57666643
