10
b3lypvtz=-274657.55301227
N       2.43321212     -0.80114112     -0.47186075
C       1.92015509      0.16514218     -1.07706028
O       0.60467419      0.57947370     -1.13487880
N      -0.23736663     -0.25448573     -0.37522931
C      -1.43465654      0.13920496     -0.44016435
O      -2.40732987     -0.49877477      0.20228004
F      -1.85861365      1.19860261     -1.12942447
H       1.73279877     -1.33371612      0.04268489
H       2.49362362      0.85873621     -1.68486006
H      -3.24659709     -0.05304190      0.03401308
