17
b3lypvtz=-217671.27492545
C       1.55398130      1.31837610      0.29692350
C       1.19732432      0.07821009     -0.50646839
O       2.16868248     -0.91490232     -0.14434035
C      -0.21152590     -0.45262927     -0.31582120
C      -0.84148800     -0.64574611      1.04818119
C      -1.39226411      0.37831719      0.11726220
O      -2.65934333      0.10765909     -0.42314943
H       0.94384401      2.17185480      0.00134517
H       1.43051304      1.14665203      1.36664201
H       2.59933210      1.56835812      0.11885953
H       1.31799352      0.31771598     -1.57209068
H       1.90877107     -1.75489355     -0.53493058
H      -0.47904708     -1.22292263     -1.03280561
H      -1.43665112     -1.53615939      1.19365007
H      -0.30302437     -0.30816529      1.92230895
H      -1.21970383      1.42090177      0.36373480
H      -2.71017810      0.50612239     -1.29807819
