15
b3lypvtz=-214512.25863085
N       2.13569443     -1.02483882      0.08736805
C       1.75813262      0.36049277     -0.17529885
C       0.26099797      0.60890286     -0.04023254
O      -0.15639311      1.70212133      0.28834545
C      -0.66954647     -0.51021146     -0.36558787
C      -1.74787198     -0.79188236      0.63687469
N      -2.07103929     -0.16065538     -0.63043802
H       3.06060963     -1.22240078     -0.27031492
H       2.15217006     -1.21596184      1.08135223
H       2.00120117      0.58890991     -1.21851019
H       2.26275844      1.11528044      0.43713159
H      -0.26170328     -1.33375531     -0.93221610
H      -1.75391002     -0.18390489      1.53374999
H      -2.08619478     -1.81352643      0.75437580
H      -2.16359438      0.84294095     -0.48289730
