11
b3lypvtz=-241297.74653265
C       1.17248369      1.75833408      0.07407410
N       0.01831571      1.22399270      0.04100473
C      -0.15358435     -0.16486071      0.04040776
C       0.89737564     -1.20402780      0.07437795
O       2.09184003     -1.01260608      0.10868489
C      -1.40747965     -0.65538177      0.00523313
F      -2.48424144      0.10809471     -0.02857189
H       1.21304201      2.84540710      0.07165852
H       2.10818097      1.20753936      0.10417777
H       0.49825354     -2.23981882      0.06593590
H      -1.63847913     -1.71250677      0.00171413
