17
b3lypvtz=-215280.29861924
C       2.36235038     -0.49853263      0.41126504
O       1.26550007     -0.48982923     -0.50779584
C       0.22169710      0.33678960     -0.18640343
N       0.56673317      1.68491316     -0.05355681
C      -1.01723811     -0.14987086     -0.01134248
C      -1.35531033     -1.61050252     -0.02782679
N      -2.07011855      0.81390252      0.19810631
H       2.03940724     -0.86179020      1.39106159
H       2.80009871      0.49323495      0.52778900
H       3.10037263     -1.18093446     -0.00428692
H      -0.27203128      2.24485709      0.03567985
H       1.14688535      2.00910482     -0.81766882
H      -2.08612980     -1.83479296     -0.81349357
H      -0.47525791     -2.22467859     -0.20715395
H      -1.80925580     -1.92515264      0.91895242
H      -2.84328989      0.64795061     -0.43868208
H      -2.45408599      0.73909733      1.13525649
