15
b3lypvtz=-191226.53376058
N       2.35543586      0.12542406     -0.08533570
C       1.09183001      0.04685786      0.04121350
C       0.34579270     -1.24002791     -0.02447212
N      -0.91298462     -1.39102587      0.01875303
C      -1.76835259     -0.20825387      0.11097732
C      -1.12555672      1.09692429     -0.35479140
C       0.25260646      1.27199681      0.28772310
H       2.76328929     -0.80223826     -0.22650472
H       0.96375343     -2.13778675     -0.10793692
H      -2.67338447     -0.42365993     -0.45953517
H      -2.08679648     -0.13213499      1.15715991
H      -1.01977857      1.07494132     -1.44325059
H      -1.77566586      1.94050267     -0.11631643
H       0.78126301      2.15164557     -0.07658588
H       0.13850656      1.39028299      1.37149407
