11
b3lypvtz=-269609.12346285
C      -2.15785158     -0.19892019      0.08694347
C      -0.86978770     -0.34800151     -0.22961324
C       0.20785752      0.39820293      0.36614741
F      -0.11395507      1.31293504      1.31203947
C       1.50571222      0.26603668      0.06518776
O       1.99597517     -0.59142651     -0.84594848
F       2.44353757      1.00300740      0.66979569
H      -2.47983435      0.51340149      0.83341272
H      -2.91857835     -0.79194678     -0.39936752
H      -0.56781295     -1.06753918     -0.98031915
H       2.95483753     -0.49574937     -0.87837813
