18
b3lypvtz=-202791.21819774
C       3.47611079     -0.50167051     -0.12403800
N       2.35066839      0.41790345     -0.03374713
C       1.06390663     -0.25033516      0.10909662
C      -0.07842717      0.76856465      0.17531655
C      -1.40685061      0.13288158      0.43754877
N      -2.33479653      0.15308403     -0.42997111
N      -3.50298773     -0.52298986     -0.15931408
H       4.39574220      0.05942788     -0.29222868
H       3.37999692     -1.25378929     -0.92313230
H       3.58548526     -1.03862595      0.82077299
H       2.33073353      1.01186715     -0.85454180
H       1.09084211     -0.83199946      1.03639034
H       0.86127452     -0.96842142     -0.70254025
H      -0.14266434      1.32044626     -0.76465283
H       0.15690390      1.48675043      0.96684152
H      -1.54712985     -0.37053725      1.40322190
H      -4.26709357     -0.09824017     -0.66217812
H      -3.71784043     -0.61686637      0.83085160
