15
b3lypvtz=-214523.92708166
C       1.87742756      1.21974537      0.27858013
C       1.45798639     -0.20319360      0.02578646
N       2.21665858     -1.16963572     -0.28870608
C      -0.00782550     -0.52706247      0.21150004
O      -0.79651055      0.50377162     -0.39156434
C      -2.14616619      0.41967871     -0.27152803
N      -2.86546483     -0.44202297      0.29977508
H       1.56037615      1.54459609      1.27269266
H       1.39746085      1.88908686     -0.43625664
H       2.95830301      1.32630981      0.19909011
H       3.19104873     -0.86920742     -0.33804490
H      -0.21841856     -1.49634220     -0.24020996
H      -0.23244400     -0.57777374      1.28410257
H      -2.59559510      1.26994854     -0.77674172
H      -2.33707853     -1.19623188      0.73253563
