13
b3lypvtz=-213749.52998305
C      -2.89772269     -0.38908498     -0.31543168
C      -1.80935831      0.11690694      0.23914886
O      -0.59400438     -0.51825194      0.14177270
C       0.54475772      0.23813854      0.12029827
N       0.66322128      1.48492207     -0.05417052
N       1.63880076     -0.60561089      0.37877040
C       2.68758570     -0.42548782     -0.30385786
H      -2.86035423     -1.28681901     -0.91570680
H      -3.85214972      0.08889557     -0.15588466
H      -1.81082706      1.00971702      0.85383607
H      -0.22439795      1.95141085     -0.21519067
H       3.56328782     -1.03047498     -0.08468278
H       2.75668707      0.31891763     -1.09979433
