12
b3lypvtz=-202903.16177142
C      -1.30018677      0.29332279      0.32440137
C      -0.44756210     -0.99234614      0.05159706
C       0.72735551     -0.07339768     -0.31629765
C      -0.08337621      1.13832065     -0.05779436
O       0.29537123      0.77808828     -1.38651182
C       2.12646302     -0.31971672     -0.16458908
N       3.24276467     -0.55785554     -0.01188662
H      -1.57685442      0.39245454      1.37237513
H      -2.17417027      0.44821343     -0.30526164
H      -0.77043787     -1.64652819     -0.75535527
H      -0.26373980     -1.57247018      0.95309080
H       0.22437302      2.11191477      0.29623211
