19
b3lypvtz=-192725.12470242
C      -2.83486807     -0.46644671     -0.00462591
C      -1.71837328      0.49855097     -0.38384967
N      -0.51854821      0.27664025      0.39791634
C       0.29207232     -0.93186825      0.13854846
C       1.56268478     -0.09748082      0.39814112
N       2.72203654     -0.39671145     -0.41106966
C       0.65025130      1.13786909      0.14550227
H      -3.08092893     -0.37037799      1.05342073
H      -2.54204253     -1.50158745     -0.19022917
H      -3.73312875     -0.26639176     -0.59093944
H      -2.04437411      1.52702223     -0.20590403
H      -1.50889627      0.41559865     -1.46701055
H       0.24922678     -1.25822701     -0.91318766
H       0.09097223     -1.78808317      0.78340096
H       1.85200708     -0.15168658      1.44686727
H       2.53592248     -0.23418428     -1.39381670
H       3.51357682      0.17918472     -0.15184341
H       0.73804821      2.00899380      0.79886886
H       0.72506160      1.46593175     -0.90413880
