15
b3lypvtz=-214530.48174442
N      -2.32790677      0.08016423      0.14633984
C      -0.95367963      0.12304285     -0.00946068
N      -0.35032870      1.23865505     -0.08961669
C       1.10740523      1.23236047     -0.12660675
C       1.72236631     -0.07753353      0.33667122
O       1.08641497     -1.17133644     -0.32166694
C      -0.28049860     -1.23660637      0.01513754
H      -2.78002893      0.96995571     -0.00321262
H      -2.81079475     -0.70037544     -0.26919700
H       1.47273768      2.05399653      0.49637065
H       1.42937166      1.45210867     -1.14992818
H       1.61956831     -0.18952379      1.42486915
H       2.78035770     -0.13768831      0.08343771
H      -0.42266360     -1.68214008      1.01114836
H      -0.75364889     -1.90063254     -0.71210563
