12
b3lypvtz=-249568.40131185
N       2.58234055     -0.25377594     -0.03557897
C       1.28313172     -0.66470243      0.00794049
C       0.23209215      0.17991475      0.00183419
O       0.47270674      1.54129193      0.00113007
C      -1.12955133     -0.32548045     -0.00066558
O      -1.48835116     -1.48224733     -0.00639956
O      -2.03285171      0.71007855      0.01009615
H       3.29949773     -0.89434515      0.25195887
H       2.76540636      0.72106007      0.13707243
H       1.09058015     -1.72646093      0.00910282
H      -0.37714149      1.99442272      0.01916230
H      -2.91105171      0.30576220      0.01093979
