17
b3lypvtz=-191979.25043825
C      -2.33767269     -1.16176235      0.19689223
C      -1.04353959     -0.97331882     -0.02648244
C      -0.35280375      0.34169838     -0.31558178
C      -1.25994677      1.56830956     -0.27918205
N       0.77475699      0.53576519      0.59730902
C       2.02968554      0.00587617      0.41896819
N       2.54060569     -0.59613981     -0.58034752
H      -2.72767094     -2.14860944      0.40871023
H      -3.05730082     -0.35379222      0.17623939
H      -0.37216168     -1.82581716      0.00811793
H       0.07944839      0.27871922     -1.31892465
H      -0.68380060      2.46127582     -0.51749824
H      -1.70505411      1.70179519      0.70914514
H      -2.06992188      1.47767350     -1.00222176
H       0.53284528      0.78571113      1.54295965
H       2.66684342      0.17844538      1.28731838
H       1.87840654     -0.72538375     -1.34367471
