14
b3lypvtz=-180329.22347645
C       0.84453914     -0.10889946     -0.19863343
C       0.36610440      0.43396554     -1.30310518
C       0.88095404      0.84435286     -2.65245773
C      -0.04968742      0.03912589     -3.60874390
C      -1.18408846      0.86209574     -3.00863576
C      -0.27341782      1.92528539     -2.56535765
N      -0.93013007      1.05640343     -1.52264267
H       0.22079384     -0.21443779      0.67820588
H       1.87154525     -0.44193776     -0.14479115
H       1.93338402      0.99093549     -2.86923794
H      -0.06252593     -1.04576224     -3.49262937
H       0.11032491      0.30863657     -4.65253255
H      -2.21873299      0.92486140     -3.30864607
H      -0.30636293      3.00347497     -2.54189247
