13
b3lypvtz=-237051.55850326
C      -3.30967636      0.05098664      0.22359625
N      -2.02708742     -0.44093650     -0.24724189
C      -0.88904472      0.28765961     -0.10484008
N       0.26229829     -0.27342454     -0.10186483
O       1.25266627      0.76553440     -0.06817037
C       2.51777087      0.30513601      0.05281671
O       2.88488936     -0.82536338      0.14553374
H      -4.11130768     -0.47178532     -0.29584782
H      -3.39795298      1.11182270     -0.00997761
H      -3.45122179     -0.07622166      1.30204717
H      -1.89111963     -1.44091632     -0.24476079
H      -1.01390275      1.36586285     -0.02858357
H       3.16799354      1.19234454      0.05055307
