15
b3lypvtz=-214497.28223874
C       3.18093568     -0.70515106      0.07786138
O       2.26834431      0.36835968     -0.11940097
C       0.95780749      0.05028031     -0.00540319
C       0.00157281      0.98588985     -0.01299264
C      -1.42262789      0.70194555      0.05697875
N      -1.91835808     -0.46428780     -0.10986352
N      -3.26862434     -0.62843165      0.10509678
H       3.12704781     -1.08485654      1.10170200
H       2.98469506     -1.52208542     -0.62195296
H       4.17538717     -0.30650223     -0.10565718
H       0.72000849     -1.00522417      0.07880993
H       0.29561525      2.02681181     -0.06421414
H      -2.07669303      1.55512417      0.27334306
H      -3.61641506     -1.37880582     -0.47317251
H      -3.81908265      0.21883334     -0.02504279
