14
b3lypvtz=-226993.44136871
C      -2.80406464     -0.58980092     -0.17067982
N      -1.57938266      0.18154255     -0.09447152
C      -0.53131249     -0.34599475      0.36067322
C       0.73294433      0.48301058      0.42618073
O       0.53661339      1.77828866     -0.06288791
C       1.83451196     -0.23389968     -0.36227120
O       2.33381751     -1.26926974     -0.01362406
H      -3.14848804     -0.60920702     -1.20584329
H      -3.57742224     -0.08892261      0.41381155
H      -2.69206988     -1.61876540      0.18945128
H      -0.46139800     -1.38075543      0.70942973
H       1.06884952      0.50350466      1.47264637
H      -0.39975667      1.82213797     -0.32335387
H       2.12502192      0.29324715     -1.29242423
