13
b3lypvtz=-237065.52557148
N      -3.03327101      0.07491194     -0.44470407
C      -1.77557938      0.18370675     -0.39063406
C      -0.87146657     -0.37414956      0.68528491
O       0.39238021     -0.78653504      0.16476514
C       1.38512505      0.14827481      0.02010529
N       1.39165475      1.38142303      0.26572775
O       2.47939545     -0.45825519     -0.46644009
H      -3.39827449     -0.47588991      0.33756299
H      -1.27145614      0.74476755     -1.18033037
H      -0.72598034      0.36180152      1.48271541
H      -1.31400065     -1.26567385      1.12815499
H       0.51077458      1.73544051      0.61443745
H       2.28497954     -1.39651556     -0.57892935
