19
b3lypvtz=-192730.25636194
C       3.31832131      1.03450898      0.23680905
C       2.39625878      0.40705333     -0.48163419
C       1.34604581     -0.50327952      0.08009671
N       0.01014961     -0.07175348     -0.32744912
C      -1.06450299     -0.92808067      0.16451196
C      -2.40249308     -0.52639821     -0.44540881
N      -2.70303933      0.88513888     -0.16691332
H       4.05939747      1.67487725     -0.22340315
H       3.36916115      0.92481808      1.31410938
H       2.36045625      0.54486569     -1.55798077
H       1.46451804     -0.57526502      1.17321974
H       1.49730483     -1.51326849     -0.31765150
H      -0.14578547      0.86769233      0.02132388
H      -1.14752674     -0.90613665      1.26272026
H      -0.84014602     -1.95893535     -0.12358059
H      -2.38434028     -0.75495075     -1.51826606
H      -3.18536176     -1.13846639      0.00683630
H      -3.69603910      1.06118330     -0.24939839
H      -2.25257847      1.47659670     -0.85514136
