16
b3lypvtz=-227760.92888521
C      -0.25303642     -0.96118240     -0.37724918
C       0.80438232     -0.07240486      0.28820887
C       0.25213967      1.33268720      0.00457709
O      -1.16062161      1.18967352     -0.22333444
C      -1.52976786     -0.17336020     -0.13926921
O      -2.01874043     -0.50471773      1.14890044
N       2.13638769     -0.25610992     -0.29417414
H      -0.31038895     -1.96534107      0.03849882
H      -0.04638505     -1.02363857     -1.44692575
H       0.77994215     -0.25312438      1.36857291
H       0.41121485      2.02772381      0.83129619
H       0.71534322      1.73982028     -0.89802044
H      -2.30865059     -0.33408167     -0.88901054
H      -2.74026342      0.10053878      1.35102660
H       2.46183913     -1.20116253     -0.12284362
H       2.80660530      0.35467973      0.16060269
