17
b3lypvtz=-191971.89448982
C       2.67804710     -0.01249293      0.04031629
C       1.49001718      0.59316268     -0.05999907
C       0.17089441     -0.01184307      0.09258687
C      -0.09820886     -1.29399378     -0.23137042
N      -1.28352074     -1.93638300      0.04713108
N      -0.91147589      0.79043873      0.60423497
C      -1.51360833      1.70337201     -0.37168237
H       2.76658527     -1.06019633      0.29930608
H       3.59857503      0.52826083     -0.13252775
H       1.48285975      1.66286452     -0.25927391
H       0.66110200     -1.89961441     -0.70928096
H      -2.00734078     -1.32624803      0.39746666
H      -1.59530356     -2.63603587     -0.60487401
H      -0.61398802      1.30768759      1.42169457
H      -2.29207648      2.29150803      0.11689127
H      -0.80114696      2.39745390     -0.83794136
H      -1.97997014      1.12315812     -1.16884794
