18
b3lypvtz=-205211.23780731
C      -2.75500794      0.39264488     -0.47143291
O      -1.48015236      0.36155585      0.13419794
C      -0.89134188     -0.92867765      0.11793266
C       0.48692808     -0.86846366      0.76754503
C       1.46811290     -0.02058751     -0.02006161
C       1.57131040      1.43177456      0.36773037
N       2.11748945     -0.58444794     -0.95556489
H      -2.70755646      0.09589396     -1.52632762
H      -3.46050259     -0.27128727      0.04396178
H      -3.12220597      1.41546485     -0.40742358
H      -0.79582886     -1.28967215     -0.91382883
H      -1.52855746     -1.63616159      0.66598612
H       0.37930667     -0.49156807      1.78672395
H       0.87796906     -1.88501270      0.81294659
H       2.26780864      1.96895134     -0.27598428
H       1.90813053      1.52481590      1.40372186
H       0.58680459      1.89933526      0.31156620
H       2.72529521      0.08363894     -1.43152376
