15
b3lypvtz=-170266.01675061
C       2.20194978     -1.20768098     -0.00008472
C       1.20269814     -0.54517697      0.00020409
C      -0.00002538      0.30429344     -0.00001786
C       0.00006854      1.19543408     -1.26892806
C      -0.00014446      1.19589756      1.26856462
C      -1.20272182     -0.54521482      0.00004123
C      -2.20191170     -1.20781160      0.00008638
H       3.07973733     -1.80426562      0.00024994
H       0.88786354      1.82728769     -1.27512016
H      -0.88776038      1.82723969     -1.27528898
H       0.00017377      0.58233581     -2.16812726
H       0.88765142      1.82775206      1.27468189
H      -0.00020316      0.58313383      2.16799307
H      -0.88796931      1.82771152      1.27454438
H      -3.07967130     -1.80443770      0.00010843
