14
b3lypvtz=-224605.15611177
N      -2.14133223      1.09181998     -1.01591014
C      -1.10687045      0.42138067     -0.36816524
N      -1.39203359      0.03528303      0.93893710
C       0.04284250      0.07929425     -0.99554517
N       1.06231752     -0.54304681     -0.28347557
C       2.12735901     -0.92388541     -0.84469818
O       3.13694549     -1.52511266     -0.16566961
H      -2.92510739      1.34265373     -0.43728652
H      -1.86381991      1.81875768     -1.65332600
H      -1.71416504      0.79084599      1.52968495
H      -0.60071784     -0.44053826      1.35121078
H       0.14898383      0.26027159     -2.06185212
H       2.36921419     -0.82535867     -1.90254989
H       2.85628390     -1.58246510      0.75854560
