20
b3lypvtz=-182659.60914332
C       1.35254903      1.46007149     -0.01968334
C       1.32776574     -0.02711072      0.34817037
C       2.58246040     -0.73501812     -0.17144643
C       0.06169816     -0.73672349     -0.15905524
C      -1.22911939     -0.23747041      0.44506489
C      -2.10263560      0.76161449     -0.21578931
N      -2.47076297     -0.66323239     -0.21991897
H       0.49863262      1.99603466      0.39498700
H       1.33242100      1.59021427     -1.10525895
H       2.26000917      1.93890454      0.35329950
H       1.33350950     -0.10142825      1.44245766
H       2.59941570     -1.78583967      0.12392807
H       3.48950026     -0.26419687      0.21247174
H       2.62632362     -0.69663024     -1.26318818
H       0.14523034     -1.80690153      0.05625610
H      -0.00219277     -0.64972040     -1.24816706
H      -1.24206188     -0.22571615      1.53225026
H      -1.82325506      1.15820687     -1.18434941
H      -2.66921836      1.44578198      0.40525331
H      -3.19984551     -0.84025506      0.46216199
