18
b3lypvtz=-181928.48842382
C       0.63626881     -0.90553502     -1.25832243
C       0.69539200     -0.02817950     -0.00001268
C       1.99248060      0.79398093      0.00029195
C       0.63618308     -0.90637211      1.25770861
C      -0.48958992      0.97854771      0.00031078
C      -1.80897849      0.35442886      0.00018646
N      -2.84434208     -0.14777788      0.00003330
H      -0.28124059     -1.49442963     -1.29141416
H       1.47946229     -1.59792703     -1.27774683
H       0.68174600     -0.29977542     -2.16602710
H       2.05908407      1.43196729      0.88420419
H       2.05912934      1.43252691     -0.88321274
H       2.86175760      0.13472155      0.00010386
H       0.68137495     -0.30118527      2.16581122
H       1.47948701     -1.59863698      1.27684951
H      -0.28123986     -1.49544703      1.29021768
H      -0.42307461      1.62650627     -0.87728809
H      -0.42299519      1.62599534      0.87828148
