9
b3lypvtz=-235521.15093602
C      -0.02019187      0.85127581     -0.26757471
C      -1.17117592      0.17455811     -0.22354760
N      -1.19933572     -1.21937223     -0.11402254
N      -0.19469487     -1.90595871     -0.05211671
O       1.12445061     -1.23079492     -0.09483152
C       1.24940436      0.13261737     -0.20084373
O       2.33869641      0.63518687     -0.23145529
H       0.01948371      1.92753681     -0.35201667
H      -2.14663671      0.63495088     -0.26765757
