14
b3lypvtz=-226995.79785504
O       3.56880048     -1.08334181      0.81946417
C       2.22846282     -1.10602051      0.76983133
N       1.55106727     -0.16093555      0.27128607
C       0.16170870     -0.26677970      0.25591649
C      -0.62259727      0.68723406     -0.24664235
C      -2.11482956      0.60914042     -0.27733336
O      -2.64977681      0.50413119     -1.60283862
H       3.85496528     -0.24894967      0.41735053
H       1.83016385     -2.02336298      1.20582722
H      -0.28615053     -1.16926629      0.67735354
H      -0.15278161      1.57450328     -0.66060152
H      -2.45932835     -0.28323135      0.24570172
H      -2.54932280      1.47813104      0.23332225
H      -2.36038146      1.26984787     -2.10863746
