16
b3lypvtz=-232751.88368729
O      -1.21629453      1.59610562      1.08009691
C      -0.76465063      0.71434467      0.07301092
C      -1.55801905     -0.59680896     -0.03516947
C      -0.22011513     -1.33652751     -0.29710280
C       0.52302887     -0.12290141      0.31981343
C       1.81107949      0.35754829     -0.29137599
F       2.83926165     -0.56097413     -0.05733467
H      -0.78938269      2.45120996      0.97365672
H      -0.71594252      1.22287412     -0.89738773
H      -2.34396025     -0.65416945     -0.78619027
H      -1.97459697     -0.85326223      0.93883436
H      -0.07717145     -2.30170353      0.18234223
H      -0.00733391     -1.44168177     -1.36177231
H       0.64829473     -0.25803742      1.39565542
H       1.71998878      0.47057159     -1.37552276
H       2.12571361      1.31321216      0.13854601
