10
b3lypvtz=-225481.69823618
N       3.02506374     -0.16660531      0.00000498
C       1.90181026     -0.40868524     -0.00008911
C       0.48560290     -0.73572553     -0.00007184
C      -0.42493703      0.48670845     -0.00000031
O      -0.05437450      1.62953022      0.00002379
C      -1.92945265      0.18525924      0.00003732
O      -2.36934967     -0.93201858      0.00000494
H       0.23801677     -1.35249599     -0.86857169
H       0.23808045     -1.35255596      0.86840413
H      -2.55769427      1.09406771      0.00009378
