15
b3lypvtz=-216887.05332516
O      -2.04685735     -0.71394217     -0.41868580
C      -1.01931184      0.24800067     -0.40616282
C      -0.39340404      0.55867762      0.97286855
C       0.82199234      1.13650363      0.19467164
C       0.45672204     -0.20517788     -0.50077289
O       0.99264040     -0.76803083     -1.65083298
C       0.30156471     -0.83321798      0.91720479
H      -2.12815263     -1.05777011     -1.31400931
H      -1.27949965      1.12031604     -1.01358244
H      -0.89150524      1.00714011      1.82534607
H       0.65756432      2.05037840     -0.37648781
H       1.76447296      1.15751013      0.73973154
H       1.89068506     -1.06491883     -1.47077919
H      -0.34293133     -1.70278147      0.99849438
H       1.21592023     -0.93258734      1.50289628
