16
b3lypvtz=-181095.95740427
C       1.37029941      0.92867689     -0.12458763
C       0.19085017      1.55670895     -0.00840797
C      -0.87032217      0.60200942      0.44439074
N      -2.08711041     -0.12294238     -0.01744729
C      -0.74896470     -0.60764552     -0.39446338
C       0.31336539     -1.51544859      0.15707607
C       1.59520439     -0.58698857      0.01135795
H       2.27034658      1.49985459     -0.32994078
H       0.09236881      2.63287953     -0.09212380
H      -0.79436948      0.41834810      1.51179798
H      -2.51639947      0.26989669     -0.85040978
H      -0.51583408     -0.36090706     -1.42687545
H       0.46464601     -2.44521276     -0.39560400
H       0.13416884     -1.76620456      1.20209546
H       2.26256715     -0.75861079      0.86068426
H       2.16869557     -0.90316293     -0.86583136
