12
b3lypvtz=-257122.36642655
C      -1.59517374     -0.55971023     -0.25051216
C      -0.18817397     -0.15558228     -0.34996743
C       0.96218530      0.18996718     -0.37855250
C       2.35736393      0.59425550     -0.46821947
F       2.50168560      1.91945598     -0.15610369
F       3.12731495     -0.11213581      0.41639263
N      -2.21490204     -0.38451721      1.06511357
H      -1.68233156     -1.61028080     -0.53699988
H      -2.17685952      0.00257274     -0.98454220
H       2.77477457      0.44176208     -1.46554233
H      -1.70386918     -0.91355046      1.76240376
H      -2.16201434      0.58776331      1.34652971
