15
b3lypvtz=-191212.1950938
C      -2.87820229     -0.55147289     -0.11621902
C      -1.76878356      0.09804961      0.23690220
N      -0.47439958     -0.31346393     -0.03726710
C       0.63951367      0.51529106     -0.06569770
C       0.60950371      1.85785737     -0.04098996
C       1.95300821     -0.17013588     -0.08155238
N       2.20715956     -1.39761490      0.11793966
H      -2.85424489     -1.45445869     -0.71306962
H      -3.84292304     -0.19085357      0.20438085
H      -1.82147101      1.00546064      0.82432624
H      -0.37548251     -1.20507327     -0.49733500
H      -0.30682853      2.42800866     -0.05158602
H       1.53698893      2.40800660      0.00744311
H       2.79338549      0.49021122     -0.29533749
H       1.36374284     -1.92783604      0.34677723
