21
b3lypvtz=-172615.89417951
C      -1.99162503     -0.00002478     -0.77367187
C      -0.66637863     -0.00000043     -0.00860310
C      -0.94789483      0.00004712      1.50333396
C       0.23515655     -1.19399567     -0.39412774
C       1.66997289     -0.77785688     -0.00895737
C       1.66996975      0.77785776     -0.00899483
C       0.23515682      1.19397004     -0.39420290
H      -2.58964945      0.88112136     -0.52883418
H      -1.82255303     -0.00005744     -1.85277622
H      -2.58964758     -0.88115728     -0.52878049
H      -1.52425110     -0.88229596      1.79060045
H      -1.52424645      0.88241095      1.79054611
H      -0.02917023      0.00006268      2.09205059
H       0.17043417     -1.34963019     -1.47452715
H      -0.07898943     -2.12507439      0.08179862
H       2.40413249     -1.18710813     -0.70319944
H       1.93275922     -1.15975922      0.97827198
H       1.93273956      1.15980794      0.97822042
H       2.40413754      1.18707998     -0.70324533
H      -0.07899299      2.12508091      0.08165802
H       0.17044175      1.34953063     -1.47461353
