15
b3lypvtz=-216942.34585182
C       3.13799696      0.12586925      0.00001804
C       1.64614743      0.26895288      0.00003876
C       0.84785358     -0.79146329     -0.00003828
O      -0.53972571     -0.86435143     -0.00003503
C      -1.37003684      0.21416656      0.00007782
C      -2.80226190     -0.25149485     -0.00000899
O      -1.01123881      1.36058840      0.00017134
H       3.57675845      0.60917541     -0.87692863
H       3.44892782     -0.91979774     -0.00010365
H       3.57676399      0.60897331      0.87707371
H       1.23183331      1.26410245      0.00012520
H       1.23397869     -1.80218783     -0.00012377
H      -2.99480539     -0.86789621     -0.87854464
H      -3.46086167      0.61156547      0.00014655
H      -2.99482889     -0.86824537      0.87827457
