16
b3lypvtz=-204448.84382287
C      -2.24066906      1.29419956      0.00000148
C      -1.46189523      0.20082733     -0.00000009
C      -2.04150294     -1.18493883     -0.00000002
N      -0.07921701      0.29583543     -0.00000242
C       0.84405084     -0.73640869      0.00000010
C       2.16480146     -0.54099637     -0.00000006
O       2.67204869      0.74663545     -0.00001016
H      -1.82243922      2.29246398      0.00000152
H      -3.31492921      1.20336976      0.00000239
H      -1.72747643     -1.75038630      0.88098902
H      -1.72747743     -1.75038594     -0.88098964
H      -3.12704168     -1.13097423      0.00000068
H       0.30895978      1.22534332     -0.00000196
H       0.46258344     -1.74347852     -0.00000006
H       2.86551146     -1.36189632     -0.00000019
H       3.63055653      0.71604034      0.00004242
