10
b3lypvtz=-220635.10050137
C      -0.21533753      1.07453013      0.16635239
C      -0.91418781     -0.18220787     -0.05911790
N      -2.18388991     -0.23952531     -0.10939788
N      -0.08799606     -1.33702438     -0.21856587
N       1.16589155     -1.22660299     -0.16015925
N       1.70993499     -0.02289101      0.05172660
N       1.06842187      1.15029520      0.22021987
H      -0.77842420      1.98988653      0.29580021
H      -2.47918078     -1.20282104     -0.27432176
H       2.71476788     -0.00363927      0.08746361
