11
b3lypvtz=-262192.71055208
N       1.17201897     -0.52174108      0.44313780
C       0.88404558      0.18789604     -0.69920908
N       1.69080273      0.70867053     -1.53644282
C      -0.57395500      0.38954441     -0.93517467
F      -0.89702833      1.18914154     -1.93788875
N      -1.43672921     -0.19296679     -0.21117236
O      -2.74495517      0.09806730     -0.57529105
H       2.08712843     -0.93257814      0.51231774
H       0.41688768     -1.03594761      0.86645395
H       2.66116190      0.51899139     -1.28937537
H      -3.25947758     -0.40927759      0.06124461
