16
b3lypvtz=-202054.30013157
N       3.16710167     -0.39711055      0.10579684
C       1.89572133     -0.48446205     -0.01696198
C       0.92897219      0.58816210      0.04128242
C      -0.41587254      0.47984965     -0.10438653
N      -1.25518049      1.56329499     -0.09331979
C      -1.14989286     -0.81639247     -0.38653866
N      -2.41891029     -0.86799182      0.35549392
H       3.44369035      0.57769391      0.24831045
H       1.51003507     -1.49197570     -0.17902019
H       1.33842095      1.58204838      0.20680371
H      -2.21369521      1.34938842      0.14026002
H      -0.89684874      2.43482151      0.25845861
H      -1.39607488     -0.83160755     -1.45162749
H      -0.49745637     -1.66740154     -0.19411038
H      -3.02998688     -1.57306164     -0.03523271
H      -2.25510830     -1.11869664      1.32372476
