16
b3lypvtz=-202028.54058529
C      -1.67861960     -1.46559687     -0.05976633
N      -0.42950621     -1.21207959     -0.05105326
N       0.04830284     -0.00893061      0.39754414
C      -0.55481537      1.23494635      0.21332828
N      -1.63534883      1.57996688     -0.35619021
C       1.49975583     -0.03939027      0.62631364
C       2.32179413     -0.03827185     -0.65793723
H      -2.45986098     -0.80436816      0.30146956
H      -1.96229825     -2.45262840     -0.40393318
H       0.06778615      2.01899995      0.64349576
H      -2.13972397      0.80024054     -0.76730327
H       1.74515118      0.82517433      1.24386297
H       1.71327542     -0.92968580      1.21553295
H       2.15407829      0.87409698     -1.23243950
H       2.05256203     -0.89169663     -1.27958027
H       3.38623335     -0.10440385     -0.42638406
