15
b3lypvtz=-214524.38448587
C      -2.86248661     -0.68171036      0.00674702
N      -1.81693384      0.04930126      0.00372433
C      -0.54123693     -0.46516923     -0.01545197
C       0.46757744      0.45822704     -0.01841753
O       0.18561980      1.77423498      0.02191915
N       1.79973256      0.20848615     -0.08120531
C       2.34894490     -1.12425511      0.04421061
H      -2.82361118     -1.77455725     -0.00899376
H      -3.83909586     -0.21124395      0.02522483
H      -0.34931534     -1.53176073     -0.03425547
H      -0.79153089      1.80622742      0.04216216
H       2.38604222      0.98858123      0.16167157
H       1.98677897     -1.76342360     -0.76275727
H       2.09242264     -1.59778355      0.99795085
H       3.43201714     -1.06503931     -0.03584822
