10
b3lypvtz=-279673.31384117
C      -1.84203537     -0.11700878      0.26368282
C      -0.77085278     -0.38066456     -0.46363045
O       0.15202045      0.53599202     -0.84636801
C       1.38510327      0.50424916     -0.23791837
N       1.66925144     -0.30811840      0.66948435
F      -0.57012637     -1.60024850     -0.96798318
F      -2.04316803      1.10763981      0.77644321
H      -2.60371471     -0.84555010      0.48979638
H       2.00376505      1.27962622     -0.68416769
H       2.61975702     -0.17591685      1.00066094
