15
b3lypvtz=-219479.15493933
C      -0.58042621      0.23676373      1.13985151
C      -1.46568280      0.31283966     -0.12897658
C      -0.77848693     -0.97351940     -0.64491219
C       0.32498918     -0.03075208     -0.09619454
N      -0.37710938      1.08850303     -0.85782609
C       1.80431639     -0.22479659     -0.15499403
F       2.45214838      0.83174696      0.49033209
H      -0.74891415     -0.58636680      1.83711643
H      -0.40198158      1.17840635      1.65828203
H      -2.51415194      0.59016358     -0.20937205
H      -0.78512358     -1.10904731     -1.72364826
H      -0.96336977     -1.89211556     -0.09172761
H      -0.20976738      1.97261865     -0.37208197
H       2.09626001     -1.15103849      0.34559197
H       2.14729976     -0.24340571     -1.19144069
