12
b3lypvtz=-249518.45214131
O       2.63794223      0.59223399      0.07980539
N       2.21835699     -0.69991718     -0.32283234
C       0.94091267     -0.78388915     -0.37515887
C      -0.02088997      0.24647099     -0.08128261
C      -1.34877687      0.04795070     -0.16900304
O      -2.30009810      0.97551401      0.09396455
O      -1.90138915     -1.11882477     -0.53567662
H       3.59490660      0.50234936      0.07231605
H       0.58383065     -1.76055954     -0.68025282
H       0.33848379      1.21776572      0.22181487
H      -1.88191028      1.80368453      0.35497647
H      -2.86136855     -1.02297864     -0.52557103
