12
b3lypvtz=-200534.30445252
N      -2.75712793      1.28604507     -0.00146879
C      -2.20302559      0.27244476     -0.00250382
C      -1.50189860     -0.97817824     -0.00271872
N      -0.22014510     -1.10047899      0.00172602
C       0.62077368     -0.02463345      0.00904380
C       1.95662725     -0.26116495      0.01125115
N       2.93203595      0.67781484     -0.01694006
H      -2.11222833     -1.87342922     -0.00612354
H       0.23213729      0.99364443      0.00905152
H       2.29315114     -1.28992570      0.01255724
H       3.88730976      0.41756568      0.13960631
H       2.70568749      1.65254377      0.07737289
