15
b3lypvtz=-240217.98679544
C      -1.52315986      0.71927591      0.73803708
C      -0.96292679     -0.62402548      0.29848806
O      -1.96182295     -1.57046202      0.07331527
O      -0.22151319     -0.48049674     -0.91755552
C       1.10266094     -0.14792833     -0.85934116
C       1.82016729      0.22405514      0.20087744
O       3.16491874      0.51101157      0.17289770
H      -2.08015741      0.60591132      1.66768092
H      -0.73002449      1.45094249      0.88753682
H      -2.19496647      1.10434569     -0.03226794
H      -0.31123838     -1.06262398      1.05819321
H      -2.59039717     -1.20779972     -0.56170831
H       1.55724585     -0.22276344     -1.84071268
H       1.42182346      0.34080704      1.19652518
H       3.50939043      0.35975054     -0.71406609
