13
b3lypvtz=-216165.24032819
C      -2.17444649      0.26374896      0.00007763
C      -0.94317787     -0.25536392      0.00000893
C      -0.69629164     -1.74061033     -0.00005332
C       0.18779898      0.72587580     -0.00000234
O       0.03251234      1.93150815      0.00003210
C       1.66153224      0.27946156     -0.00004347
O       2.06817955     -0.85034366     -0.00005986
H      -3.05095160     -0.37071088      0.00009176
H      -2.32218483      1.33475262      0.00012119
H      -0.12308355     -2.05609475     -0.87187639
H      -1.64765526     -2.27164864     -0.00004414
H      -0.12302960     -2.05615889      0.87171078
H       2.33198073      1.16058897     -0.00004587
