17
b3lypvtz=-215300.10967691
C      -1.48420637     -0.55671451     -0.69750299
C      -0.29367913      0.27416290     -0.22600279
C      -0.69633285      1.26581042      0.86596662
C       0.81935519     -0.64193456      0.32878494
N       0.49509667     -1.56058380      1.15300726
N       2.07386449     -0.35266259     -0.14458804
O       0.20904278      1.07952578     -1.31008295
H      -1.19165611     -1.21897940     -1.51668753
H      -1.85267473     -1.18251911      0.11135048
H      -2.27967359      0.10285238     -1.04590827
H      -1.48530308      1.92042937      0.49565520
H      -1.04760608      0.72966031      1.74489122
H       0.15659991      1.88319868      1.15048090
H       1.30615324     -2.08193962      1.48399916
H       2.86976100     -0.72424216      0.34458068
H       2.19134043      0.52179700     -0.62860179
H       0.20991820      0.54213888     -2.10934206
