13
b3lypvtz=-213764.22331818
C      -1.26628017      0.75131092     -0.10825596
C      -1.41054096     -0.72618426      0.11224483
N      -0.48073705     -1.56385923     -0.05335022
C       0.79427396     -1.02649648     -0.52427370
C       1.11854596      0.37855513     -0.07713121
N       2.31058049      0.74427855      0.11004748
O       0.06434805      1.22375011      0.12194337
H      -1.57229893      1.00334072     -1.13196413
H      -1.90846481      1.31174430      0.57107875
H      -2.38989194     -1.08782188      0.42446756
H       1.60547960     -1.67657749     -0.20804657
H       0.78200051     -1.05517908     -1.62021345
H       2.35298529      1.72313869      0.39302583
