18
b3lypvtz=-181878.17187786
C      -2.45268554     -0.56828765     -0.50560698
C      -1.27422560      0.36434394     -0.64444750
C      -0.82991300      1.23062017      0.50994325
C       0.02385632      0.07994539      0.05328474
N       1.24605534      0.39177393     -0.63711126
C       2.48765568      0.12471413      0.08085103
C       2.06721233     -0.73995579     -1.05342346
H      -2.40015811     -1.38588486     -1.22844010
H      -3.39538662     -0.04054683     -0.66759676
H      -2.49204206     -1.00981113      0.49237696
H      -1.15574598      0.81751942     -1.62102517
H      -0.46561379      2.22326653      0.28630381
H      -1.35236690      1.13481746      1.45286779
H       0.04885688     -0.79986555      0.69907887
H       2.41353287     -0.29527004      1.07899176
H       3.27492045      0.85677223     -0.04885563
H       2.54325001     -0.64694723     -2.02152637
H       1.71279772     -1.73720411     -0.81228213
