14
b3lypvtz=-222173.13399671498
C      -0.92698844     -0.62613231      0.65811110
C       0.17527580      0.16870036     -0.01275179
N       1.40215471     -0.20533578      0.22498443
N       2.32525385      0.62805412     -0.40598364
N       3.51142378      0.35119914     -0.19933639
N      -0.21897705      1.20731272     -0.75832147
N      -2.21002682     -0.47433224     -0.03157337
H      -0.57442731     -1.65502369      0.75828690
H      -1.03242144     -0.22903055      1.67029840
H       3.55878314     -0.47510216      0.43167411
H       0.47332522      1.76523034     -1.22712716
H      -1.20714236      1.32317291     -0.91247882
H      -2.29452808     -1.13487735     -0.79439980
H      -2.98170502     -0.64383552      0.59861751
