19
b3lypvtz=-192738.66815154
C       2.99116957     -0.50497599      0.17934128
C       1.78675926     -0.34045490     -0.37426167
N       0.56744495     -0.28482597      0.28093256
C      -0.53863659      0.49665350     -0.27604353
C      -0.40579878      1.99909810     -0.00612179
C      -1.86799502     -0.06284521      0.25773893
N      -2.15488789     -1.45706284     -0.06041974
H       3.13056506     -0.55863299      1.25190608
H       3.86540075     -0.61586884     -0.44311836
H       1.69307871     -0.28606650     -1.45419031
H       0.64737207     -0.20293245      1.28633877
H      -0.51393221      0.32856150     -1.35728388
H       0.54551517      2.37914901     -0.37957185
H      -0.45096824      2.20516759      1.06644893
H      -1.21004504      2.55918979     -0.48759252
H      -1.87570197      0.04913813      1.34808081
H      -2.68828235      0.55405755     -0.11495132
H      -2.31317452     -1.56483576     -1.05603007
H      -1.34414094     -2.02404972      0.16366868
