11
b3lypvtz=-212932.9124155
C      -0.85270736     -1.64378638      0.35979321
C      -0.33669628     -0.41379246      0.47897658
C      -1.14167209      0.75993730      0.58979412
C      -1.81854652      1.74671380      0.68273047
N       1.08227772     -0.32037228      0.49131798
N       1.53211882      0.82334050      0.60292596
O       2.89495132      0.82877789      0.60646104
H      -0.19570149     -2.49735908      0.27906620
H      -1.92013952     -1.79943407      0.34272790
H      -2.41330547      2.62216814      0.76505390
H       3.16942088     -0.10619335      0.51675157
