16
b3lypvtz=-204454.90422779
C       2.51621966     -0.36379171      0.25877092
C       1.22020323     -0.87243035     -0.36725358
C      -0.04139623     -0.23938306      0.22598555
C      -0.06579171      1.22658975      0.01124216
N      -0.09565090      2.36372500     -0.16126387
O      -1.16280910     -0.85652498     -0.36800968
C      -2.40908345     -0.51279874      0.22224946
H       3.37314963     -0.87364001     -0.18107187
H       2.53913249     -0.54772420      1.33490689
H       2.64874425      0.70662916      0.09783410
H       1.11840250     -1.94865588     -0.22002734
H       1.21383044     -0.69441366     -1.44362470
H      -0.05349536     -0.39941332      1.31401109
H      -3.16832395     -1.09234652     -0.29733546
H      -2.62891713      0.55272100      0.10794147
H      -2.42578536     -0.76972648      1.28752988
