17
b3lypvtz=-212856.75642876
C       2.57699654     -0.66822060     -0.26898042
C       1.20227756     -0.01200365     -0.31427760
N       1.30844393      1.38132807      0.13857806
C       0.22501683     -0.76161450      0.60233053
N      -1.09858068     -0.17961198      0.67673199
N      -1.96933639     -0.42243335     -0.29604313
N      -2.97000404      0.33180719     -0.28685996
H       2.52074936     -1.71912171     -0.55662131
H       3.26741349     -0.17413180     -0.95549798
H       2.99801307     -0.60367365      0.73627456
H       0.81077205     -0.08888377     -1.33854692
H       2.05269861      1.85545723     -0.35973493
H       0.45696127      1.88836506     -0.07511712
H       0.11309542     -1.79006898      0.25759424
H       0.63148747     -0.77971280      1.61509680
H      -1.27263852      0.64585951      1.24283371
H      -3.56630099      0.00847072     -1.04987351
