17
b3lypvtz=-217675.18779843
C       1.89207666      0.61182796      0.37731837
C       0.60825853      0.14928816     -0.26374393
O       0.06888691      1.07540190     -1.19019080
C       0.36181281     -1.31376147     -0.51776091
C      -0.43098576     -0.56655120      0.54250547
C      -1.89263737     -0.25930456      0.31117212
O      -2.25800460      1.03029763      0.79025725
H       1.74492030      1.57389800      0.87095811
H       2.68225921      0.72905534     -0.36991731
H       2.24137207     -0.10657120      1.11952163
H       0.63435308      1.10105078     -1.96908745
H      -0.17023333     -1.57262965     -1.42389137
H       1.10946511     -2.03103769     -0.20712665
H      -0.16770944     -0.76071175      1.57543413
H      -2.51371915     -0.97134786      0.85676150
H      -2.13070879     -0.35793327     -0.75203307
H      -1.77920623      1.66892889      0.24992291
