17
b3lypvtz=-170999.87733335
C      -0.82437583     -0.51525486      0.33183970
C      -0.30087321     -1.44915512     -0.80254000
C       1.10418176     -0.89908922     -1.01867415
C       1.14726947      0.43480927     -0.67948281
C       0.44625152      0.27317620      0.66932992
C       1.53959800     -0.74360564      1.27004538
C       2.11728930     -1.49987616     -0.05430071
H      -1.20891093     -1.07305652      1.18548867
H      -1.61200507      0.15226957     -0.01508928
H      -0.28847428     -2.49912971     -0.51065094
H      -0.89867510     -1.37008845     -1.70935340
H       2.11567837      0.93094398     -0.66448496
H       0.29477351      1.15171700      1.29610115
H       1.11300906     -1.40343477      2.03267959
H       2.36238089     -0.20114965      1.74005681
H       2.08441216     -2.58689748      0.01830724
H       3.14447037     -1.18537841     -0.23197222
