19
b3lypvtz=-195155.76894472
C       2.36688775     -0.72747807      0.26769358
C       1.14502344     -0.10934680     -0.37919414
C       0.77298262      1.30669032      0.10759460
C      -0.77278223      1.30667996      0.10808049
C      -1.14507865     -0.10915266     -0.37905246
C      -2.36702308     -0.72739288      0.26757089
O      -0.00008418     -0.90815036     -0.08226602
H       2.52945988     -1.73980697     -0.10307596
H       3.25650447     -0.13511923      0.04672097
H       2.23983661     -0.77307762      1.35052722
H       1.28124133     -0.08855912     -1.47112988
H       1.16217573      1.47175250      1.11308229
H       1.19669449      2.07598693     -0.53792015
H      -1.19696065      2.07625329     -0.53679852
H      -1.16125819      1.47131093      1.11391921
H      -1.28126657     -0.08806835     -1.47099278
H      -2.24007762     -0.77328998      1.35040505
H      -3.25660591     -0.13496744      0.04664966
H      -2.52957123     -1.73962144     -0.10349205
