17
b3lypvtz=-217671.30682803
C       2.24450020      0.46811805      0.28784706
C       1.23880186     -0.64394600     -0.01775494
C      -0.18361057     -0.27770516      0.33979695
C      -1.03979150      0.51342445     -0.62601524
C      -1.36738935     -0.92286934     -0.34140793
O      -2.52704544     -1.20320605      0.38276541
O      -1.99715919      1.42128417     -0.13504706
H       3.25866298      0.17257617      0.01428640
H       2.00360393      1.38006649     -0.26264633
H       2.24640046      0.71368001      1.35191320
H       1.52006122     -1.55303270      0.52198372
H       1.28938185     -0.89866892     -1.08056692
H      -0.36418296     -0.04789563      1.38555889
H      -0.62180304      0.78094945     -1.59176043
H      -1.17322399     -1.66008567     -1.11145707
H      -2.97646671     -0.35910701      0.52486930
H      -1.55073972      2.11641769      0.35763499
