11
b3lypvtz=-262024.96520898
O       2.44647569     -0.39403944     -0.42174754
C       1.87409156      0.64242539     -0.26167879
O       0.55497392      0.79815108     -0.00140775
C      -0.22732066     -0.41498031      0.18995960
O      -0.33986803     -0.74347159      1.51520466
C      -1.57696955     -0.06021554     -0.42799254
O      -2.57822706     -0.02814433      0.23633494
H       2.33811344      1.63506965     -0.31249813
H       0.27166970     -1.21990649     -0.35106142
H      -1.19305847     -0.40376477      1.82858065
H      -1.56988054      0.18887634     -1.50259368
