16
b3lypvtz=-181106.11253442
C       1.21932139      0.88407163      0.13894851
C       1.39758901     -0.66362318      0.14415938
C      -0.05029732     -1.10354447     -0.01518182
C      -0.97545256     -0.16297336      0.80802085
C      -0.29247581      0.96754676     -0.02276567
C      -0.78117740     -0.14690707     -0.99949162
N      -2.05947061     -0.36216181     -0.22456782
H       1.56294582      1.34834836      1.06491449
H       1.75105897      1.36424849     -0.68431737
H       1.83866722     -1.03041086      1.07236713
H       2.02612016     -1.01475663     -0.67579080
H      -0.29909341     -2.16078014     -0.05129799
H      -1.17731789     -0.18990695      1.87890691
H      -0.77592341      1.94347141     -0.06591773
H      -0.75078216     -0.15475512     -2.08910132
H      -2.63371200      0.48213291     -0.27888514
