16
b3lypvtz=-204460.61687324
C       2.32992841      0.35349780     -0.40320833
C       1.04178803     -0.29981617      0.02948564
N       0.94726244     -1.36593941      0.71332460
C      -0.25014051      0.38796106     -0.37863223
C      -0.59210990      1.56932135      0.53701848
C      -1.38838030     -0.62146477     -0.45992748
O      -2.49909971     -0.42286920     -0.04407446
H       2.40323612      0.36067835     -1.49380463
H       2.37045360      1.39503021     -0.07774239
H       3.19485051     -0.17134778      0.00097791
H       1.86524842     -1.73950771      0.95625934
H      -0.12454889      0.76261037     -1.40485418
H      -0.70115372      1.22813483      1.56597823
H      -1.53637762      2.01721026      0.23328029
H       0.18241428      2.33533901      0.50288171
H      -1.13252615     -1.56416621     -0.97786651
