12
b3lypvtz=-226230.12158188
C      -2.01133078      0.19443475     -0.08258715
C      -0.57475635     -0.15836642     -0.20865098
C       0.57476046      0.54752009     -0.06247099
C       1.59112389     -0.41470694     -0.32942166
N       1.10866623     -1.59473165     -0.61159286
O      -0.28622324     -1.42973378     -0.53401701
O       2.92930024     -0.24439770     -0.32179039
H      -2.53673355      0.01511078     -1.02222081
H      -2.12146003      1.24359393      0.18372594
H      -2.49198610     -0.41354212      0.68573723
H       0.68575073      1.58648296      0.19409782
H       3.13288850      0.66833613     -0.09871882
