13
b3lypvtz=-216136.65286026
C       2.32690415     -1.07416988     -0.21290094
C       1.30034193     -0.47229877     -0.36035946
C       0.06250409      0.28601650     -0.51005551
C       0.11375090      1.50575987      0.41170748
O      -0.75360340      1.78821845      1.19694218
C      -1.22145131     -0.54340625     -0.29639865
O      -1.33867714     -1.06537192      1.00749150
H       3.22660346     -1.62273276     -0.08472803
H       0.03484981      0.69299114     -1.53186789
H       1.02236432      2.12843937      0.31194620
H      -1.20939795     -1.39292884     -0.97777310
H      -2.07769784      0.08885630     -0.55422010
H      -1.48649103     -0.31927323      1.60001633
