17
b3lypvtz=-191955.17964547
N      -3.38365215     -0.21194754     -0.09732910
C      -2.27814657      0.12021871      0.42281169
C      -0.98625488      0.44967346     -0.27306029
C       0.15167132     -0.49263038      0.13451046
N       1.39271237     -0.11708510     -0.53079865
C       2.62412851     -0.60237978      0.07662524
C       2.24709711      0.83181610      0.17441261
H      -3.31164055     -0.23306936     -1.11786349
H      -2.24814620      0.17251239      1.51564710
H      -0.69832907      1.47369453     -0.01019011
H      -1.11857479      0.41542853     -1.35621219
H       0.25880718     -0.49383358      1.23162057
H      -0.09376954     -1.51411826     -0.16529846
H       3.39590464     -0.92228768     -0.61211615
H       2.54368084     -1.19707800      0.98165885
H       1.91528484      1.18938262      1.14504257
H       2.74109295      1.57343034     -0.44044963
