17
b3lypvtz=-217701.20447299
C       1.96365469     -0.62503553      0.35550826
C       0.89955363      0.24886635     -0.26631238
O       1.17642324      1.22916703     -0.91965232
C      -0.58038851     -0.16682230     -0.07959532
C      -1.43764293      1.06197440      0.22005577
C      -1.02623792     -0.86128777     -1.36955629
O      -0.71509424     -1.14729140      0.95746954
H       1.78422089     -1.67755032      0.13538864
H       2.93963941     -0.31229631     -0.00679107
H       1.93369147     -0.53405134      1.44375990
H      -2.48769984      0.77492072      0.27586964
H      -1.30833435      1.81702835     -0.55224435
H      -1.14985228      1.51363936      1.17345069
H      -0.92119153     -0.18918517     -2.21943643
H      -2.06888232     -1.16424073     -1.27345157
H      -0.42876091     -1.75526912     -1.55154513
H      -0.72877252     -0.69860921      1.80866143
