16
b3lypvtz=-209463.19371554
F      -2.01351916      0.00000017     -0.92430700
C      -1.75200633     -0.00000352      0.45127530
C      -0.26106836     -0.00000291      0.71274896
C       0.49209794     -1.23276016      0.14610628
C       1.82971853     -0.66446884     -0.25218565
C       1.82971730      0.66447292     -0.25218143
C       0.49209550      1.23275920      0.14611363
H      -2.23093637      0.88898917      0.86870646
H      -2.23093475     -0.88899945      0.86870141
H      -0.14131633     -0.00000605      1.80064992
H       0.56885295     -2.04006055      0.87831103
H      -0.02468703     -1.64499434     -0.72690702
H       2.66597605     -1.28528557     -0.54559417
H       2.66597353      1.28529305     -0.54558643
H      -0.02469011      1.64499740     -0.72689740
H       0.56884864      2.04005549      0.87832309
