14
b3lypvtz=-224583.92474916
C       2.37554700      1.06239147     -0.11344591
C       1.45675878      0.10321398      0.02399457
O       1.76241435     -1.20094531      0.15330363
N       0.06881889      0.37416874      0.10639240
N      -0.74391635     -0.72767428     -0.14452315
C      -2.00264433     -0.51078246     -0.13091970
N      -2.60377989      0.71717256      0.06156963
H       3.42238525      0.80917387     -0.13215149
H       2.08369189      2.09916518     -0.18051819
H       0.92321255     -1.68772455      0.06283599
H      -0.19531742      1.21205706     -0.40012051
H      -2.65389013     -1.35093024     -0.33455494
H      -3.59372755      0.69197079      0.24344485
H      -2.10537405      1.34476518      0.67873680
