17
b3lypvtz=-217666.30938651
C      -2.81616282     -0.20996087      0.02577113
O      -1.48790729      0.09674260      0.39254319
C      -0.52376142     -0.38680743     -0.53178478
C       0.81946525      0.14046158     -0.11469703
O       0.89161544      1.54444815     -0.12261876
C       1.63532344     -0.59962456      0.91063276
C       2.06393627     -0.55958214     -0.54297336
H      -3.07493738      0.22186052     -0.94884472
H      -2.98039735     -1.29373418     -0.02044147
H      -3.47020597      0.21299641      0.78618851
H      -0.52176070     -1.48451418     -0.54802629
H      -0.76328360     -0.02772435     -1.54193148
H       0.18369335      1.85925783      0.45246751
H       2.19802205      0.00553074      1.60668089
H       1.25068392     -1.52731650      1.31196721
H       2.90102620      0.07486520     -0.79681022
H       1.97800062     -1.46095681     -1.13474211
