13
b3lypvtz=-211360.63405899
C      -2.24979052      0.22615809      0.01739665
N      -0.85257164     -0.16083827     -0.02588107
C       0.24982277      0.63641323     -0.08510686
C       1.30117500     -0.25486554     -0.09790967
N       0.79462154     -1.51226659     -0.05076421
N      -0.51243375     -1.44682254     -0.01325350
N       2.67032409     -0.03048554     -0.21437027
H      -2.31604706      1.31058901     -0.00881974
H      -2.71068641     -0.14237220      0.93235808
H      -2.77679986     -0.18883520     -0.84001362
H       0.19414116      1.70845066     -0.12144753
H       3.01552959      0.73076140      0.34989425
H       3.19271510     -0.87588649     -0.03283592
