13
b3lypvtz=-216132.99360779
C      -0.87519001     -0.36617786     -0.79922573
C       0.41092725     -1.08837557     -0.27495753
C       1.12733590      0.29647185     -0.39900866
C      -0.27006281      0.64837659      0.23155887
C      -0.03177119     -0.58570645      1.10151252
O      -0.13988968     -0.92895026      2.23981127
O      -0.76180578      1.88706379      0.56175691
H      -0.81179481     -0.03713792     -1.83498988
H      -1.83899583     -0.81189593     -0.56208902
H       0.79123948     -2.05739578     -0.56971784
H       2.01465042      0.46361998      0.20814577
H       1.25039231      0.64661446     -1.42235592
H      -0.86503523      1.93349308      1.51955923
