16
b3lypvtz=-204456.76564679
C      -2.47991238     -0.40894419     -0.04930442
C      -1.36066651      0.08410875      0.46957513
C      -0.14524860      0.49290010     -0.32479704
C       0.20385866      1.96531899     -0.09105479
C       1.02759442     -0.45749013     -0.03645014
N       2.22495739     -0.16593961      0.23361759
O       0.70774166     -1.77414448     -0.13408870
H      -2.60269323     -0.53706946     -1.11900895
H      -3.31906194     -0.68744652      0.57431313
H      -1.28138196      0.20777498      1.54640549
H      -0.38087165      0.35460104     -1.38607007
H      -0.64601942      2.59708394     -0.34757571
H       1.04704425      2.27419692     -0.70959342
H       0.45815255      2.15062994      0.95383047
H       2.36115928      0.83834186      0.26511131
H      -0.25111751     -1.86686313     -0.19975189
