17
b3lypvtz=-191991.49996284
C      -2.65981864      0.34636180      0.00877203
C      -1.50121849     -0.60071866     -0.30077013
C      -0.19899584     -0.23720074      0.40490388
C       0.99825394     -1.17215571      0.07692754
N       2.17792915     -0.30323689     -0.09327512
C       1.72991685      0.88688452     -0.12502297
N       0.35772764      1.06273026     -0.02584811
H      -2.44093339      1.36084534     -0.32970983
H      -2.86545370      0.38546448      1.08133164
H      -3.57517883      0.02603646     -0.49058955
H      -1.77299912     -1.61960579     -0.00825567
H      -1.31440774     -0.62097001     -1.37764239
H      -0.37524512     -0.21893382      1.48841250
H       0.82140651     -1.71558728     -0.85734891
H       1.18033238     -1.91413011      0.85421152
H       2.36301859      1.75608730     -0.26714039
H       0.02520381      1.90132283      0.42432296
