17
b3lypvtz=-171083.06357856
C      -2.64033971      0.30297282     -0.03581942
C      -1.43444112     -0.57236043     -0.37454695
C      -0.16802214     -0.23512271      0.43900080
C       0.43212966      1.12257943      0.17440582
C       1.72280926      0.98505743     -0.16996305
C       2.07358491     -0.43868565     -0.17195385
C       0.99374112     -1.15692380      0.17424626
H      -2.45053657      1.35430101     -0.25668759
H      -2.90001581      0.22669503      1.02259646
H      -3.51485222     -0.00060541     -0.61355521
H      -1.68788260     -1.62043535     -0.19419510
H      -1.19838341     -0.48850306     -1.43804710
H      -0.43206986     -0.29918329      1.50557843
H      -0.10973981      2.05114120      0.26987484
H       2.40865809      1.78570327     -0.40810629
H       3.05143605     -0.82939352     -0.41499321
H       0.93078015     -2.23208597      0.25729317
