15
b3lypvtz=-216893.72145418
C      -3.51488533     -0.65838574      0.77490370
C      -2.38294115     -0.85432762      0.42975321
C      -1.00136413     -1.06441341      0.01659998
C      -0.16512656      0.21097982      0.11703744
O       1.15022464     -0.10663232     -0.29925050
C       2.03764049      0.99336519     -0.24030978
O       3.31289154      0.57583498     -0.59870575
H      -4.51898691     -0.49590896      1.07751381
H      -0.96915339     -1.42579763     -1.01405337
H      -0.53979371     -1.83774772      0.63562680
H      -0.16793484      0.58287469      1.14934556
H      -0.59699460      0.99285240     -0.51971294
H       1.74757656      1.76314435     -0.96353557
H       2.01022664      1.42175576      0.77430728
H       3.59852075     -0.09749379      0.02848012
