11
b3lypvtz=-210582.65081903
N      -2.36165727      0.40226199      0.00015360
N      -1.57765518     -0.55647318      0.00010926
N      -0.26131570     -0.18023388      0.00003836
C       0.32567428      1.07755178      0.00003328
C       1.66231259      0.82606690     -0.00002807
N       1.92097402     -0.53775191     -0.00010154
C       0.75474731     -1.11064592      0.00002371
H      -3.29868404     -0.00993082      0.00023135
H      -0.25982982      1.97624342      0.00002040
H       2.46670673      1.54231680     -0.00000931
H       0.54204107     -2.16654619      0.00000796
