16
b3lypvtz=-204467.0359814
C       0.02811186      1.47070291      0.84873011
C      -0.07052683      0.20299350     -0.01066060
C      -1.20292461     -0.68399504      0.42823989
C      -2.24138140     -1.01359705     -0.32646855
N       1.18582446     -0.55837935      0.02481211
C       2.24998768     -0.26020543     -0.75849658
O       2.30328804      0.66552788     -1.54268547
H       0.85857437      2.08684762      0.50705788
H       0.18904820      1.21670918      1.89835780
H      -0.89164934      2.05184340      0.77325977
H      -0.22241367      0.49822639     -1.04939452
H      -1.15170598     -1.04357794      1.45413363
H      -2.33124240     -0.66682490     -1.34904422
H      -3.04129339     -1.63741365      0.05023431
H       1.24960999     -1.36466625      0.62403136
H       3.08869302     -0.96419130     -0.60902591
