10
b3lypvtz=-225487.32512619
O       1.34381755     -0.25422511      0.62848181
C       2.26712585      0.06729897     -0.07664547
C       2.97157101     -0.82198018     -1.00598086
C       4.01459659     -0.48626613     -1.81231570
O       4.38061447     -1.58554224     -2.51548397
C       3.51763302     -2.55623588     -2.08743570
N       2.67254195     -2.16800430     -1.20580724
H       2.66315411      1.10361668     -0.06953986
H       4.56851135      0.41774517     -1.98984444
H       3.63563411     -3.53120698     -2.52852855
