16
b3lypvtz=-181089.0955066
C       2.09748753     -0.01716097      0.04497056
N       0.77314113      0.54466886      0.27332097
C      -0.15191576      0.28326565     -0.88493361
C      -1.44387952      1.00306143     -0.44293812
C      -1.52779130     -0.07645157      0.62976724
C      -0.08755469     -0.39149702      1.02327496
C      -0.68670180     -1.04154911     -0.18924835
H       2.62815800      0.59691048     -0.68431812
H       2.07634702     -1.05686225     -0.32119909
H       2.66622050      0.00364751      0.97598823
H       0.26964588      0.39348869     -1.87933059
H      -2.24294670      0.89368759     -1.17592496
H      -1.33250336      2.04579111     -0.14194136
H      -2.35472566     -0.31571430      1.28256688
H       0.18402098     -0.80372072      1.98431878
H      -0.86700225     -2.06156538     -0.49427343
