15
b3lypvtz=-191176.98666674
N       2.24772025     -0.60718406     -0.20626295
C       0.97179086     -0.10323506     -0.21835308
C       0.29960519      0.81225090     -0.93059006
C      -1.11746291      0.64112555     -0.34972429
C      -0.75295952      0.51959685      1.15205916
N       0.00802250     -0.74136803      0.70898755
C      -1.16823154     -0.90844805     -0.27135672
H       2.96719626     -0.02186356     -0.59867809
H       2.50445039     -1.05226181      0.66069642
H       0.61783745      1.48010815     -1.71223443
H      -1.92642629      1.26098013     -0.73362107
H      -0.12672122      1.29167452      1.59516396
H      -1.56968681      0.23976305      1.81906987
H      -0.92743481     -1.47943701     -1.16564090
H      -2.02769981     -1.33170157      0.25068464
