14
b3lypvtz=-203705.89702845
C       1.83455186      0.89991807      0.04533773
C       0.66743331      0.27325840      0.15765027
C       0.33082511     -1.19305421      0.00597878
C      -1.20147143     -1.22976092      0.26949784
N      -1.63525210      0.14499994      0.53928014
C      -0.62088779      0.91021249      0.47172860
O      -0.67548034      2.23980425      0.67003432
H       2.74778018      0.36816066     -0.18770501
H       1.90260531      1.96957120      0.18769757
H       0.88244334     -1.80506287      0.72061696
H       0.58138150     -1.55844898     -0.99069147
H      -1.75802672     -1.61918475     -0.58541049
H      -1.45812072     -1.85973515      1.12367192
H      -1.59778151      2.45932187      0.86054896
