13
b3lypvtz=-216148.7169307
O       1.99294709     -0.52262517     -1.18332869
C       0.86071527     -0.09487666     -0.57097898
C       0.34490735     -0.74778203      0.69456073
C      -0.98314191     -0.03767628      0.91491812
O      -1.95118064     -0.24899781     -0.11150440
C      -1.13706162      0.96077941     -0.15144848
C       0.05689630      0.87181840     -1.02713286
H       2.43802809     -1.17213657     -0.63060413
H       0.21320986     -1.82602352      0.56664225
H       1.02647123     -0.59102317      1.53747214
H      -1.37635345      0.08063252      1.91738776
H      -1.69745364      1.87846779     -0.03152858
H       0.21221607      1.44934309     -1.92455487
