10
b3lypvtz=-246372.84808360308
C      -0.41037216      0.03586713      0.12059617
N      -0.95665199      1.21465396      0.14026753
N      -1.45590551      2.23946818      0.16181891
C       1.00861365     -0.09396520     -0.13213775
O       1.57147528     -1.16893131     -0.16153764
O       1.63958233      1.09010262     -0.33046281
N      -1.16121829     -1.11825852      0.33863760
H       2.57036256      0.87952809     -0.48759025
H      -2.14349838     -1.09215279      0.51730053
H      -0.66238749     -1.98631216      0.30719765
