18
b3lypvtz=-233528.42095717
C       2.06886612     -0.41614649     -0.81672309
C       0.74600314     -0.57677829     -0.07497050
O       0.94589950     -0.57075461      1.34613655
C      -0.27914793      0.52468402     -0.38965376
C       0.13846863      1.91176692      0.11218075
C      -1.64393239      0.16517789      0.17937736
F      -2.11990094     -1.01852988     -0.40006944
H       2.73525501     -1.25135982     -0.58987571
H       2.57670958      0.50365828     -0.52704257
H       1.91153526     -0.40475977     -1.89731606
H       0.29282905     -1.52874821     -0.37065419
H       1.44860166     -1.35322758      1.58863957
H      -0.38568817      0.55811470     -1.47839339
H       0.28817173      1.90833932      1.19137799
H      -0.62536149      2.65368872     -0.12701516
H       1.06742550      2.24018647     -0.35242913
H      -2.37575474      0.94547801     -0.03797420
H      -1.58953655      0.00299830      1.25649097
