14
b3lypvtz=-203660.33270586233
C       1.85247921     -0.68085450     -0.46597482
C       1.13101914      0.38139697     -0.12988038
C      -0.30007705      0.38591949      0.31816483
C      -1.21274505     -0.85007959     -0.00495451
N      -2.01503774      0.03489513     -0.91298334
C      -1.29434523      1.04795847     -0.61548994
O      -0.39714485      0.91038250      1.63740711
H       1.43982217     -1.68107797     -0.47696255
H       2.89239287     -0.58321917     -0.74828439
H       1.59388842      1.36447536     -0.12636996
H      -0.77174470     -1.69917894     -0.52546308
H      -1.79247973     -1.19212170      0.85081049
H      -1.41025475      2.06692613     -0.97774277
H       0.28422729      0.49457782      2.17772330
