11
b3lypvtz=-238903.26421178
N      -2.55363853     -0.42737629     -0.19012433
C      -1.36158198     -0.59995753      0.19865293
C      -0.24901396      0.40459702      0.08462822
N      -0.39532924      1.66485007      0.09810559
C       1.16142613     -0.10537631     -0.03552485
N       2.22248343      0.54154193     -0.10577241
F       1.20605932     -1.45234144     -0.07598802
H      -2.68070750      0.48559178     -0.63717068
H      -1.10278623     -1.55368851      0.65278556
H      -1.37480314      1.93303212      0.20690673
H       2.01245270      1.53856317     -0.06414875
