14
b3lypvtz=-203677.91491264
C       1.90821795     -0.33084246     -0.15719877
C       0.50126563      0.06326087      0.16932552
C      -0.12628386      1.34166407     -0.31607711
N      -1.39288807      1.32755339     -0.41299115
C      -1.88189778     -0.01651471     -0.03917213
C      -0.66235167     -0.81361978      0.37459095
O       0.01827127     -0.24407946      1.50213533
H       2.61675045      0.37580254      0.28002606
H       2.12838318     -1.32059445      0.24015102
H       2.06685983     -0.34298032     -1.23735156
H       0.44559550      2.23170165     -0.56406517
H      -2.61224106      0.08022688      0.76649173
H      -2.39332628     -0.45864498     -0.89757701
H      -0.61645508     -1.89313324      0.29161229
