10
b3lypvtz=-248794.38229397
N      -0.01496044      1.34074700      0.65616067
C      -0.16746249      0.27519735     -0.00740630
C      -1.44880381     -0.54462396      0.05943455
O      -2.36133133     -0.18833287      0.75954507
C       0.91545473     -0.25263833     -0.91113113
O       0.77820776     -1.26925929     -1.54901726
O       2.01703555      0.50408018     -0.93218386
H      -0.87004201      1.51329286      1.19980776
H      -1.49032470     -1.45642211     -0.55267163
H       2.64212675      0.07785917     -1.53843787
