19
b3lypvtz=-192737.25115985
C       3.08035013     -0.90624592      0.14937123
C       1.98401947     -0.01927494     -0.34885505
N       1.09464298      0.45580460      0.41184679
C       0.07192360      1.31463374     -0.16430350
C      -1.32127243      0.83920545      0.23453343
N      -1.60276712     -0.48019098     -0.31233840
C      -2.92581924     -0.97943630      0.03400858
H       2.97751656     -1.07660880      1.21918118
H       4.05608148     -0.45514700     -0.05156641
H       3.06545883     -1.86557326     -0.37509609
H       1.99311737      0.20710954     -1.42562469
H       0.21742199      2.32129729      0.23814423
H       0.14459620      1.36619196     -1.25929689
H      -1.40698500      0.87260971      1.33268326
H      -2.05754748      1.54154824     -0.16680508
H      -0.89811486     -1.12556563      0.02448262
H      -3.12994841     -0.99647090      1.11654303
H      -3.04938816     -1.99179207     -0.35200493
H      -3.68855893     -0.35275173     -0.43366132
