12
b3lypvtz=-226246.58183309
O       1.96144933     -1.10858190     -0.87811553
C       1.62073442      0.02131530     -0.63659283
C       0.47146997      0.39162909      0.25691858
C      -0.40305801     -0.74943971      0.82249747
N      -1.51705763     -0.20100964      0.03305060
C      -0.82617144      0.83583432     -0.51720414
O      -1.10593825      1.71828398     -1.27848157
H       2.14028982      0.88458229     -1.09450855
H       0.78043383      1.15527773      0.97182505
H      -0.08283681     -1.74207294      0.51312650
H      -0.56481899     -0.71317473      1.89930218
H      -2.47449623     -0.49244380     -0.09181777
