16
b3lypvtz=-204444.9995304
C       1.78337427      1.46021371     -0.08437792
C       1.55463468      0.14478292     -0.07750619
C       2.61665581     -0.89193340      0.15001903
N       0.29384428     -0.40153083     -0.38659097
C      -0.73100375     -0.07140864      0.27483912
C      -2.09942516     -0.60173184     -0.05554841
O      -3.08198220      0.42907488     -0.05987692
H       2.77714742      1.85102606      0.08121932
H       0.99680058      2.16724478     -0.30866081
H       2.68833400     -1.55268865     -0.71613853
H       2.36529436     -1.51962759      1.00899351
H       3.58646396     -0.43093279      0.32737162
H      -0.67069355      0.62111496      1.12600599
H      -2.08342185     -1.03645027     -1.05305041
H      -2.36373389     -1.39674945      0.65432306
H      -3.29294299      0.66718215      0.84754852
