15
b3lypvtz=-214474.89750743
C      -2.06150366     -0.72639336     -0.01789526
N      -0.86567008     -0.24116533      0.63399586
C       0.43630869     -0.82560433      0.21750627
C       0.98120540      0.57991996      0.16117330
N       2.10396107      1.14423374      0.07997499
O       3.14122206      0.18820406     -0.02783071
C      -0.41155931      1.13801087      0.30827137
H      -2.22795995     -1.77127243      0.24845055
H      -2.01615165     -0.65504105     -1.11859279
H      -2.92588351     -0.15517898      0.32433425
H       0.89039922     -1.50881946      0.93676477
H       0.42031889     -1.30671523     -0.77089723
H       3.92809970      0.74111297     -0.06036708
H      -0.58156077      1.87598562      1.09372204
H      -0.81122611      1.52282295     -0.64071033
