16
b3lypvtz=-202065.65162735
C      -1.60566870     -1.55841891     -0.48316744
C      -1.34960136     -0.51366921      0.61378800
C      -0.64083118      0.72197839      0.10223281
N      -1.19685363      1.83072473     -0.19222657
N       0.73363492      0.64832428     -0.10873450
C       1.60798517     -0.38294457      0.16882084
N       2.86361422     -0.40714548     -0.02064582
H      -0.67743717     -1.93858328     -0.90945285
H      -2.15914431     -2.40529313     -0.07694856
H      -2.19286084     -1.12773622     -1.29457608
H      -2.30072679     -0.18519377      1.03274624
H      -0.79004645     -0.96335635      1.43640517
H      -2.19562968      1.79553004     -0.01191719
H       1.12070557      1.50082503     -0.49171090
H       1.13647253     -1.26136603      0.59879829
H       3.20819370      0.46411050     -0.42740844
