9
b3lypvtz=-235519.43203069
C       0.29007507     -0.51806809     -0.50225373
N       0.98455074      0.36698653      0.09852365
O       2.32678158      0.21282380     -0.10951070
C      -1.17346735     -0.46819714     -0.36217003
O      -1.90840401     -1.26579034     -0.89608757
C      -1.73019067      0.61328374      0.47170771
N      -2.22727188      1.43232760      1.10874415
H       0.71527045     -1.30911397     -1.11314615
H       2.72265608      0.93574785      0.39327246
