16
b3lypvtz=-204449.83860109
C      -2.99832597      0.04485523     -0.27665295
C      -1.73975086     -0.53149436      0.37356464
C      -0.47625693     -0.05807455     -0.30094003
C       0.24607357      1.18759456      0.12442674
N       0.77306371     -0.12053293      0.44237778
C       1.96774125     -0.60268976     -0.05941157
O       2.98068583      0.04123253     -0.18190569
H      -3.00615452      1.13510039     -0.22620684
H      -3.06764035     -0.23883493     -1.32885729
H      -3.89650528     -0.31909034      0.22283181
H      -1.77138203     -1.62419484      0.33854920
H      -1.69449706     -0.25714087      1.42980131
H      -0.40273644     -0.29254855     -1.36039790
H       0.78212683      1.76262363     -0.62075456
H      -0.13663973      1.75615638      0.96338492
H       1.91445897     -1.68216561     -0.28354957
