16
b3lypvtz=-202031.31388851
C       3.56945797     -0.33665280      0.21037804
C       2.26788786      0.37332653      0.03223975
N       1.18146940     -0.27265422     -0.13410793
N       0.03499436      0.41421930     -0.36069496
C      -1.18121195     -0.25591175     -0.18611475
C      -2.32683719      0.33752591      0.15636094
N      -3.60493058     -0.25564308      0.08876286
H       4.04520186     -0.06079726      1.15583018
H       3.41183838     -1.41376811      0.19878316
H       4.27446011     -0.07790175     -0.58553288
H       2.27635305      1.46984249      0.03751850
H       0.04488241      1.41279104     -0.17572493
H      -1.12566709     -1.31017883     -0.42507977
H      -2.34268744      1.39092710      0.41653767
H      -4.16382060     -0.07981508      0.91328846
H      -3.56782355     -1.25147948     -0.08336933
