15
b3lypvtz=-214506.15825985
C      -1.13107974      1.75771739      0.18840674
N      -1.28766896      0.69640051     -0.48519975
C      -0.80429030     -0.53948913      0.00925780
N      -1.40367979     -1.62890554     -0.24013142
C       0.46224212     -0.58066457      0.85950650
O       1.47880075      0.31071260      0.45364898
C       2.07606826     -0.03894197     -0.78400585
H      -1.51621999      2.69097016     -0.21594002
H      -0.63703093      1.80729579      1.16006048
H      -2.24045913     -1.43867480     -0.79533217
H       0.21296539     -0.30372172      1.88697783
H       0.80864645     -1.61802939      0.86661493
H       2.48370185     -1.05568446     -0.75250580
H       2.88671668      0.66632535     -0.95499820
H       1.36434534      0.02780377     -1.61394404
