17
b3lypvtz=-194337.74845425
C      -2.21178559      0.25063792     -0.38721889
C      -1.11562569      0.46535487      0.65723035
C       0.25498326      0.11399439      0.16464296
C       0.78797701     -1.18573382     -0.50140892
C       1.86206360     -0.08820982     -0.61482454
C       1.63044112      0.29367560      0.85904107
O       0.80358769      0.87558138     -1.00571720
H      -2.28634634     -0.80004543     -0.67260649
H      -2.00369261      0.82811355     -1.28782831
H      -3.18269173      0.56092789      0.00052761
H      -1.31581391     -0.13394043      1.55056214
H      -1.09990990      1.51060523      0.97799642
H       0.99265067     -2.03952315      0.14520480
H       0.30810639     -1.46264121     -1.43690439
H       2.78059883     -0.07925996     -1.19576276
H       1.88530289      1.31845212      1.12000232
H       1.91015432     -0.42798914      1.62706381
