14
b3lypvtz=-203685.49062744
C      -2.53919551      0.22914567     -0.54225490
C      -1.62060248     -0.32892119      0.55348954
C      -0.16235153     -0.15095939      0.26009716
C       0.77298975     -1.08418164     -0.04662048
O       1.97379976     -0.51771358     -0.25497605
N       1.84965834      0.86069348     -0.08229540
C       0.59502282      1.05727474      0.21698790
H      -2.35692344     -0.26869327     -1.49545233
H      -3.58776534      0.08526381     -0.27763021
H      -2.37534085      1.29767349     -0.69000814
H      -1.82726558     -1.39155636      0.69547827
H      -1.85966236      0.15570071      1.50405691
H       0.73294369     -2.15618164     -0.14598530
H       0.25846971      2.06649117      0.40120304
