15
b3lypvtz=-219533.83019747
C      -2.88266314     -0.18440260      0.40624035
C      -1.52656732     -0.56721047     -0.09641911
C      -0.41835314      0.16743888      0.05427486
C       0.89276067     -0.20338605     -0.43061348
C       1.99925022      0.53404554     -0.27463370
N       3.25624366      0.34063935     -0.81155383
F       1.96690357      1.68474407      0.43044823
H      -3.60798122     -0.11633924     -0.41064773
H      -3.27524230     -0.92840051      1.10659552
H      -2.86148443      0.77917254      0.91705929
H      -1.45755764     -1.51681518     -0.62156967
H      -0.48794189      1.11476540      0.57943887
H       0.99848387     -1.13431546     -0.97436936
H       4.01127284      0.59795028     -0.19118074
H       3.39287626     -0.56788656     -1.22583191
