16
b3lypvtz=-204417.10463213
C       1.81398425      0.44815725      0.45546933
C       0.72336715     -0.56798929      0.17232999
C      -0.65497285     -0.43613983      0.82753243
C      -1.25268973     -0.66365969     -0.57068374
C      -1.51308960      0.60904725      0.14325907
O      -1.04589198      1.82636347     -0.35433195
N       0.08285826     -0.51548495     -1.19523858
H       2.16044655      0.34585287      1.48645774
H       2.67154143      0.28658654     -0.20140687
H       1.45301550      1.46549419      0.31790493
H       1.10229765     -1.57710421      0.35688066
H      -0.92409378     -0.85843094      1.78527989
H      -1.99451896     -1.35670818     -0.94381664
H      -2.49642291      0.70775174      0.58581936
H      -0.46592249      1.59335998     -1.09635111
H       0.34009151     -1.30709618     -1.76910450
