14
b3lypvtz=-203692.10408156
C      -3.05046965     -0.36545306     -0.17322146
C      -1.70661404     -0.05725218      0.40357485
C      -0.59057471      0.09689225     -0.29765345
C       0.74015271      0.40834461      0.32588359
O       1.21160687      1.63951122     -0.21533005
C       1.71211137     -0.67629845      0.06440783
N       2.48762938     -1.50477932     -0.12679618
H      -3.43505017     -1.30949153      0.22189851
H      -3.01679351     -0.43759310     -1.25987146
H      -3.77542691      0.40598354      0.09903410
H      -1.66076155      0.04269568      1.48517074
H      -0.58686403      0.01060155     -1.37857870
H       0.62138667      0.47671095      1.41341174
H       2.11456858      1.79174685      0.08561494
