15
b3lypvtz=-193584.28761309
C       3.22066510     -0.41840479     -0.25321828
C       1.83697235     -0.19018471      0.13476691
C       0.69125266     -0.01488944      0.45390848
C      -0.68825034      0.21569647      0.84000911
C      -1.64062162      0.87619888     -0.19036657
C      -2.51715209     -0.36652893      0.02411881
O      -1.50998308     -0.98961500      0.85671184
H       3.35098908     -1.43126836     -0.64253264
H       3.53097933      0.28083656     -1.03400933
H       3.89643388     -0.29546201      0.59663384
H      -0.72024894      0.70051491      1.82144458
H      -2.06328455      1.83260604      0.10760175
H      -1.20768608      0.95752953     -1.18364936
H      -3.44270710     -0.18984042      0.57894392
H      -2.73735860     -0.96718870     -0.86009232
