16
b3lypvtz=-181101.86287083
C       3.55834376      0.63291071      0.24185758
C       2.50905034      0.07442228      0.40510681
C       1.22030556     -0.57938780      0.59450590
C       0.03755663      0.31809748      0.20375037
N      -1.21782724     -0.38058759      0.44167596
C      -2.38243659      0.12715403     -0.26997724
C      -1.75098833     -1.15572121     -0.67441208
H       4.49169030      1.11799708      0.10259209
H       1.18712980     -1.49852618      0.00280483
H       1.10303339     -0.87824754      1.63878447
H       0.04846099      1.21957403      0.81885546
H       0.14778925      0.63466741     -0.84448045
H      -2.24163397      0.97758080     -0.93006985
H      -3.30998863      0.13082255      0.28836398
H      -2.21242859     -2.10028394     -0.41618162
H      -1.18805665     -1.15796005     -1.60317619
