14
b3lypvtz=-255296.31670015
C      -0.98500484     -0.45588107      0.15956246
C      -2.22537325      0.35018505     -0.12475656
F      -2.38186354      0.54350044     -1.49299191
O       0.15655967      0.34199643     -0.08347439
C       1.37411563     -0.34783079      0.06751143
C       2.51010014      0.59677118     -0.26498132
O       3.66842941      0.30311368     -0.13933083
H      -1.00991217     -0.78657033      1.20804223
H      -0.97499007     -1.34986564     -0.47693332
H      -2.16134608      1.33149540      0.34863100
H      -3.10672426     -0.17928211      0.24404201
H       1.51371850     -0.72083917      1.09156412
H       1.43685518     -1.21375549     -0.60722240
H       2.18543567      1.58696242     -0.64203920
