16
b3lypvtz=-202038.14459268
C      -0.59091050     -1.63931071      0.68089282
C      -0.78836939     -0.45584444      0.09480331
C      -2.07185683     -0.13265921     -0.62912940
C       0.25116946      0.61083679      0.12787703
N      -0.24182279      1.91859094      0.30242786
N       1.50783366      0.48733492     -0.08075491
N       2.07878733     -0.75343032     -0.33218089
H      -1.35386416     -2.40698432      0.65141169
H       0.31992607     -1.86801588      1.21595706
H      -1.87055257      0.19819270     -1.65012678
H      -2.61362254      0.68214512     -0.14589920
H      -2.72367508     -1.00499794     -0.66448673
H      -0.88464053      2.01009151      1.07809772
H       0.52068275      2.57723950      0.38951541
H       2.88282149     -0.60588199     -0.92598990
H       1.44142064     -1.42214467     -0.76188510
