18
b3lypvtz=-205198.03876049
C      -2.18902361     -0.98127685     -0.65936286
C      -2.00996757      0.35779397      0.05502438
C      -0.78960547      0.39855745      0.99372197
C       0.53194901      0.30431805      0.27966126
C       0.96810898      1.40977219     -0.64045655
N       1.22545131     -0.74227116      0.50469311
O       2.43884475     -0.73352875     -0.22328572
H      -3.06402092     -0.96308564     -1.31106110
H      -2.32336260     -1.79282577      0.05871964
H      -1.32055098     -1.22978306     -1.27109450
H      -1.93412667      1.16267557     -0.68149773
H      -2.90104885      0.57654461      0.64875954
H      -0.80979109      1.33697589      1.55764869
H      -0.85040731     -0.41764280      1.71494335
H       0.29570037      2.26338700     -0.57911349
H       1.98039665      1.72997313     -0.39209014
H       0.99825525      1.06211810     -1.67533268
H       2.84964876     -1.55525494      0.06159684
