16
b3lypvtz=-202059.31666193
C      -2.49726801     -1.01082440     -0.00080945
N      -1.06129442     -0.84140533     -0.02847609
C      -0.58526511      0.34843322     -0.01316678
N      -1.35719523      1.50656469     -0.02726002
C       0.86295371      0.59417528     -0.02728573
C       1.75371692     -0.40755778      0.03074828
N       3.11928890     -0.29684882     -0.04932832
H      -2.99195778     -0.57966576     -0.88269272
H      -2.96949497     -0.56134996      0.88786832
H      -2.73513531     -2.07392970      0.01798896
H      -0.91736593      2.35057233      0.29876550
H      -2.32062010      1.41748676      0.24761233
H       1.19976156      1.62274170     -0.10373182
H       1.37522711     -1.42052858      0.09546266
H       3.66681381     -1.05251409      0.32331282
H       3.52953685      0.61327444      0.08153506
