16
b3lypvtz=-181129.87618014
C      -3.77522396     -0.38412332      0.02266659
C      -2.37901837      0.02495207     -0.05195954
C      -1.23042303      0.37233620     -0.11728457
C       0.17109195      0.77069068     -0.19006258
C       1.13515876     -0.32140862      0.32545766
C       2.56892636      0.13170634      0.29487218
N       3.54591679     -0.40581536     -0.30412026
H      -4.07121348     -0.59135079      1.05295366
H      -3.95351883     -1.28781397     -0.56352371
H      -4.43391603      0.39710987     -0.36193309
H       0.42939696      1.01903082     -1.22338630
H       0.32093083      1.68632137      0.39003811
H       1.01661716     -1.23221906     -0.26442476
H       0.86192746     -0.56293985      1.35709747
H       2.78207658      1.04243377      0.86342633
H       3.24589986     -1.24605715     -0.80551118
