13
b3lypvtz=-242077.52527174
C      -2.10273333     -0.79993202      0.02335742
C      -0.97984236      0.19301475      0.00573698
N      -1.37978911      1.50677947     -0.06502276
C       0.31871304     -0.21092532     -0.00711821
F       0.56873995     -1.54521009     -0.04428075
C       1.49119109      0.63150096      0.01816523
O       2.63935155      0.23913892     -0.01031302
H      -2.69196362     -0.71313229     -0.89225646
H      -1.73328458     -1.81581868      0.10826018
H      -2.77049347     -0.59813391      0.86532926
H      -2.28902365      1.71856127      0.31021441
H      -0.69996980      2.23517421      0.06833614
H       1.27503928      1.71934275      0.07505658
