17
b3lypvtz=-191961.81706417
C      -2.38686762     -0.77151074     -0.32083404
C      -0.94341822     -0.46461486     -0.60026598
C      -0.18955321      0.38329493      0.11575278
N      -0.59999442      1.02350653      1.29031444
N       1.12446662      0.76500995     -0.23263920
C       2.24972516      0.25136703      0.54922379
C       2.03230155     -0.17308612     -0.86106596
H      -2.90313833     -1.06901450     -1.23510034
H      -2.92737963      0.09409709      0.07595566
H      -2.52010220     -1.58745255      0.39848379
H      -0.48370785     -0.95713913     -1.44469929
H      -0.23273567      1.96132041      1.37106303
H      -1.59523748      1.00093260      1.44937423
H       3.01914325      0.97230704      0.79468351
H       2.02634939     -0.47405906      1.32270785
H       2.64419560      0.23302288     -1.65657520
H       1.68605305     -1.18798151     -1.01647908
