15
b3lypvtz=-191189.38071304
C      -2.96453077      0.50791677     -0.14433188
C      -1.96607927     -0.10187098      0.12065946
C      -0.75368435     -0.84997554      0.42619688
C       0.48899550     -0.41510338     -0.39216905
N       1.55722496     -1.37332096     -0.15301756
C       0.82635973      1.04726559     -0.12887654
N       1.93153131      1.52642957      0.25613709
H      -3.85069658      1.04551634     -0.37292719
H      -0.91657010     -1.91118045      0.22959536
H      -0.52724866     -0.75807586      1.49347672
H       0.21310639     -0.48856007     -1.44921129
H       2.34379645     -1.22141831     -0.77165199
H       1.89862506     -1.32673033      0.80060111
H       0.00472245      1.74448964     -0.30069852
H       2.62257489      0.77962798      0.37949141
