12
b3lypvtz=-202910.85196277
C      -0.48185978      0.53899804      1.36424282
C      -0.70711486     -0.22431804      0.28133675
N      -1.83564806     -0.97024819      0.02851922
C       0.32267622     -0.35081671     -0.79288095
O       0.08218323     -0.96087636     -1.82032304
C       1.61645183      0.27402106     -0.59449123
C       2.71046207      0.75930232     -0.49681451
H      -1.22458265      0.65909278      2.14113861
H       0.45850375      1.05140679      1.48209953
H      -2.68735208     -0.69589690      0.48600225
H      -1.93309610     -1.26748513     -0.93015429
H       3.67927644      1.18682033     -0.41327516
