18
b3lypvtz=-181920.6182753
C      -2.41015116      0.05369484     -0.01195899
C      -0.91800907      0.04551849     -0.33615777
C      -0.17111735      1.22599725      0.28936952
C       1.30634213      1.17572641     -0.09961418
C       1.85805525     -0.22826481     -0.04869682
N       1.20609159     -1.30781270      0.05458959
C      -0.25452345     -1.26053841      0.11614082
H      -2.92077589     -0.80021541     -0.46224554
H      -2.89015016      0.96156707     -0.38309618
H      -2.57564651      0.00754885      1.06757354
H      -0.80209377      0.11642027     -1.42444204
H      -0.26573876      1.16956561      1.37883368
H      -0.61824583      2.17501272     -0.01503393
H       1.91358702      1.81535486      0.54701837
H       1.45458417      1.56250967     -1.11505799
H       2.94518692     -0.31721403     -0.10501981
H      -0.62659251     -2.09848172     -0.47903542
H      -0.53865562     -1.48565197      1.15128115
