9
b3lypvtz=-235536.91006462
O       2.60314729     -0.61091547     -0.40820752
C       1.79012434      0.10383070      0.11224232
C       0.32494236     -0.03136560     -0.08697768
N      -0.58698720      0.71987673      0.45462335
C      -1.73541412      0.17490830     -0.05183087
N      -1.55485860     -0.84037502     -0.84973799
O      -0.16918215     -0.98760839     -0.88003595
H       2.05201266      0.93283694      0.79076963
H      -2.72388457      0.53881180      0.17615472
