17
b3lypvtz=-217694.64740687
C      -2.94039648     -0.35417902     -0.19232895
C      -1.42700166     -0.30187554     -0.39726074
C      -0.70714634      0.43670503      0.73186747
C       0.80570937      0.60299840      0.51566644
O       1.08293062      1.34877624     -0.64438138
C       1.51916376     -0.72737525      0.48008965
O       2.24393662     -1.05214064     -0.42822184
H      -3.20010683     -0.86524740      0.73782326
H      -3.36576270      0.65087372     -0.14648063
H      -3.43158857     -0.88444060     -1.00949642
H      -1.19725461      0.19343566     -1.34198597
H      -1.03720109     -1.32151285     -0.48155803
H      -0.86751550     -0.07589527      1.68670744
H      -1.12835474      1.43860724      0.84482813
H       1.21006435      1.12413868      1.40017234
H       1.71710163      0.83010644     -1.16243044
H       1.35200419     -1.39185184      1.34988968
