17
b3lypvtz=-191995.89317549
C       2.63284333     -0.36314098      0.08639554
N       1.55553964      0.59422176     -0.09017717
C       0.25121774      0.19248129     -0.04233738
N      -0.11322730     -1.03340430     -0.01302525
C      -1.57478758     -1.08701676     -0.08399095
C      -2.08800896      0.34494175      0.21213871
C      -0.86562487      1.21837849     -0.11030608
H       2.62620959     -0.82324157      1.07947510
H       2.53176861     -1.16275637     -0.64535121
H       3.58495403      0.14200719     -0.06899306
H       1.73761170      1.54261958      0.18795712
H      -1.87923611     -1.42385478     -1.08156221
H      -1.96041889     -1.82225712      0.62471410
H      -2.97062632      0.61163835     -0.36795104
H      -2.34620514      0.43800510      1.26793296
H      -0.72133206      2.04769780      0.58531362
H      -0.90917440      1.64588157     -1.11639178
