14
b3lypvtz=-180392.46503585
C       0.16772857      1.97466969      0.03612456
C      -0.02178721      0.66092752      0.01919113
C      -1.34992602     -0.06511368      0.12434499
C      -0.95309917     -1.51601218      0.04892378
C       0.36662640     -1.67676056     -0.07863654
C       1.05524974     -0.37876834     -0.10852295
N       2.31865725     -0.25223433     -0.22259335
H       1.15938916      2.40409750     -0.04518448
H      -0.65421998      2.67223081      0.13131712
H      -2.03385561      0.21012007     -0.68458164
H      -1.87029966      0.16466830      1.05939070
H      -1.67776473     -2.31712446      0.09536683
H       0.90075707     -2.61202415     -0.15326131
H       2.59254422      0.73132378     -0.22187884
