18
b3lypvtz=-181904.51726071
C      -2.54115861     -0.31950321      0.46802951
N      -1.44652371     -0.63872885     -0.07577802
C      -0.39103483      0.29311779     -0.14783879
C      -0.55463688      1.49174414     -0.71411437
C       0.92136614     -0.26640639      0.37088322
C       2.00394399      0.79249823      0.57537245
C       1.42095026     -1.40180793     -0.53951918
H      -3.35802717     -1.03718048      0.48126621
H      -2.71244625      0.65644679      0.93410016
H       0.26730251      2.18125065     -0.83036455
H      -1.51073644      1.78702715     -1.12357253
H       0.69581788     -0.71100383      1.34723918
H       2.31698610      1.23139035     -0.37403896
H       2.88525511      0.33934184      1.03164793
H       1.66429341      1.59937644      1.22583736
H       0.65327858     -2.16128063     -0.67496856
H       1.69149514     -1.01058425     -1.52250258
H       2.30488175     -1.87454080     -0.10748647
