17
b3lypvtz=-194370.31391181
C      -2.20862778     -0.35512776     -0.17832498
C      -0.91793677      0.12621141      0.47970382
C      -0.24093950      1.28887522     -0.27899327
O       1.16416405      1.19900648     -0.02667950
C       1.46209497     -0.14602089      0.26918309
C       0.99248221     -1.21075615     -0.68128983
C       0.20645363     -0.89516986      0.58043829
H      -2.66870231     -1.15826362      0.39935062
H      -2.01885698     -0.73378347     -1.18464254
H      -2.93830011      0.45402790     -0.25676728
H      -1.14287970      0.45600656      1.49837904
H      -0.43566927      1.20476830     -1.35444914
H      -0.57695583      2.27269577      0.04780434
H       2.38870786     -0.24927389      0.81479694
H       1.54390058     -2.14118373     -0.69510985
H       0.59764699     -0.91508147     -1.64415147
H       0.16447794     -1.63446878      1.36850272
