14
b3lypvtz=-203706.35211715
C      -1.69086193     -1.15739906     -0.00000248
N      -0.36293111     -0.57850187      0.00001651
C       0.83992100     -1.26627339      0.00004206
C       1.85557185     -0.34943260     -0.00004592
C       1.26985500      0.95133594      0.00003147
C      -0.09001286      0.75684207      0.00000453
O      -1.15177690      1.61211491     -0.00000115
H      -2.25105855     -0.85222434      0.88466374
H      -1.59635713     -2.24051729      0.00002564
H      -2.25102376     -0.85226567     -0.88470585
H       0.85265276     -2.34174888     -0.00000931
H       2.90828858     -0.57562002     -0.00003767
H       1.77971921      1.90014459     -0.00000440
H      -0.81723716      2.51335362      0.00003384
