13
b3lypvtz=-213762.49720277
C       0.09867510      1.58102285      0.27337116
C      -0.00816696      0.24918307      0.23887130
C      -1.30900337     -0.45660313      0.39821603
N      -1.53660502     -1.68235871      0.18159518
O      -2.30501418      0.35821922      0.82131536
N       1.05894553     -0.61445974     -0.07107286
C       2.17091056     -0.48345169      0.51476058
H       1.04383590      2.06997174      0.08296592
H      -0.76995310      2.19679286      0.44423765
H      -0.69163694     -2.14587744     -0.14160998
H      -3.09610113     -0.19652827      0.87164817
H       2.99961543     -1.12456588      0.22665776
H       2.34449816      0.24865511      1.30957981
