11
b3lypvtz=-267193.62972143
F       2.53086503      1.25885930     -0.17710353
C       2.39522219     -0.08778975     -0.06088832
N       1.27453350     -0.65612154      0.00018637
N       0.14766425      0.07929279     -0.04974501
C      -1.07787366     -0.54883006      0.01825762
C      -2.24900735      0.07712702     -0.02148568
F      -2.30043063      1.43228094     -0.13660991
H       3.33171208     -0.61882040     -0.02624420
H       0.20128030      1.08333927     -0.13623373
H      -1.03944379     -1.62305860      0.10960948
H      -3.21452194     -0.39637898      0.03025692
