17
b3lypvtz=-191983.84663767
C      -0.70855154      1.79731636     -0.56960577
C      -0.26330797      0.77620743      0.48606590
C       1.26546638      0.63823193      0.57862699
N       1.55906355     -0.37818850     -0.43819275
C       0.54562598     -1.42178490     -0.27815293
C      -0.69592547     -0.64229962      0.11047454
N      -1.85266236     -1.15262861      0.10443664
H      -0.23853061      1.58495175     -1.52998729
H      -0.42967460      2.80781206     -0.26594984
H      -1.79060852      1.77343954     -0.70717478
H      -0.69669169      1.04420182      1.45175599
H       1.54858907      0.32448168      1.59566214
H       1.78998916      1.56833922      0.35597278
H       2.50304626     -0.73324749     -0.37357234
H       0.76726252     -2.13923207      0.52874629
H       0.39114607     -1.99035305     -1.19489287
H      -2.55534925     -0.47968755      0.41565629
