13
b3lypvtz=-211331.78080315
C      -0.35511996      0.13058803     -0.08014005
C      -1.65048517     -0.18384659      0.16104036
N      -2.72679791      0.59202766     -0.11032895
C       0.67565221     -0.80895204      0.22991517
N       1.95922468     -0.71120388      0.08393127
N       2.35389886      0.52549895     -0.47074883
N       3.57314115      0.63731468     -0.61673217
H      -0.08068051      1.08441581     -0.50782098
H      -1.89577291     -1.14935656      0.59092997
H      -2.60449110      1.53901952     -0.42429279
H      -3.63569193      0.33822059      0.22801276
H       0.35260403     -1.75799494      0.65733720
H       4.03451853     -0.23573125     -0.28530969
