16
b3lypvtz=-227748.04723268
C      -2.82633660     -0.46900408     -0.13645626
N      -1.53777322      0.18713294     -0.23324035
C      -0.65295133     -0.03258182      0.63513884
C       0.70502014      0.64303712      0.52982677
O       0.76843699      1.45834055     -0.59698996
O       1.74144057     -0.31936219      0.57867528
C       1.84344069     -1.16631220     -0.56023424
H      -2.91289145     -1.13153146      0.73262292
H      -3.60890232      0.28997226     -0.08683600
H      -3.00106822     -1.04720843     -1.04534258
H      -0.79075157     -0.71228527      1.48396191
H       0.87902454      1.24346524      1.42888433
H      -0.06452259      1.32183559     -1.07916040
H       2.01489889     -0.58856735     -1.46954368
H       2.69671939     -1.81583157     -0.37810738
H       0.95005808     -1.78609633     -0.69448918
