17
b3lypvtz=-194359.0270244
C      -2.34157734     -0.38084066     -0.50986523
C      -1.22828765      0.25096269      0.31049304
C      -0.19611083     -0.76508541      0.91736183
C       0.89381313     -0.12602259      0.04226258
C       2.13839529     -0.74713038     -0.49511988
O       0.93992011      1.26487445      0.41322388
C      -0.07198171      0.83813354     -0.51133317
H      -2.92623854      0.37872694     -1.03358810
H      -3.02448950     -0.94555018      0.12765622
H      -1.94210789     -1.06852665     -1.25954927
H      -1.63382167      0.96234839      1.03162389
H      -0.42430053     -1.79419543      0.63703838
H      -0.01395909     -0.70874841      1.99043155
H       2.84485713     -0.95275872      0.31305657
H       2.62197397     -0.07749783     -1.20628117
H       1.91662078     -1.69153941     -0.99541217
H      -0.10792665      1.34009365     -1.47048196
