16
b3lypvtz=-204448.98147334
C       0.48721300      1.98073340     -0.00001241
C       0.50547634      0.47812848     -0.00000583
C      -0.57031673     -0.32133253     -0.00000994
C      -1.96762419      0.09795990     -0.00001118
N      -2.98651723     -0.66906172      0.00000494
C       1.89588596     -0.09718712      0.00000583
O       1.87678681     -1.51379197     -0.00001185
H       1.01183074      2.37096021      0.87691295
H       1.01178406      2.37095047     -0.87697015
H      -0.51593106      2.39575835      0.00001171
H      -0.40140831     -1.39210206     -0.00000998
H      -2.17457857      1.16789954      0.00000752
H      -2.69370114     -1.64963022     -0.00000101
H       2.42856936      0.28890326     -0.88141472
H       2.42854382      0.28888163      0.88145124
H       2.78266216     -1.83318561      0.00001986
