15
b3lypvtz=-214528.76531148
C       2.39007395      0.16684855     -0.70647124
N       1.17408555      0.41571617      0.05696658
C       0.91497298     -0.45377076      1.19072264
C       0.10895607     -0.57406054     -0.06282817
C      -1.31593314     -0.09440567     -0.13656517
N      -1.47658996      1.22956248      0.12027858
O      -2.22904616     -0.86340704     -0.37670214
H       2.65252818     -0.89852505     -0.75827569
H       3.21888278      0.70487889     -0.24525466
H       2.25985067      0.54089370     -1.72226027
H       1.62170013     -1.25206299      1.39454608
H       0.48291730      0.01755652      2.06441766
H       0.28790657     -1.45637709     -0.66736883
H      -2.39444891      1.62861183      0.02990091
H      -0.66166501      1.82016701      0.14917370
