9
b3lypvtz=-235535.94463502
O       1.35326716      0.48150375      0.50017864
C       2.24057467     -0.05953489     -0.10084790
C       2.90391507      0.50586730     -1.31020111
N       2.58976697      1.65493921     -1.84707503
O       3.46139658      1.75003087     -2.92825798
C       4.20509156      0.63684623     -2.91553656
N       3.91894195     -0.17078556     -1.95262212
H       2.65258166     -1.04160309      0.19272812
H       4.94756438      0.53003618     -3.68956607
