13
b3lypvtz=-213754.12068548
C      -2.54155399      0.35439269      0.08276958
N      -1.44991491     -0.57806450     -0.12655557
C      -0.16168723     -0.15186262     -0.04477233
C       0.41745633      1.09040757     -0.03689866
C       1.80002283      0.79257496      0.01377752
N       2.06126976     -0.48486308      0.04254471
O       0.78021837     -1.10582054      0.00473555
H      -3.48384652     -0.17307718     -0.04799189
H      -2.52726561      0.81110539      1.07855153
H      -2.49852311      1.15059004     -0.66151020
H      -1.59784147     -1.53164633      0.16080850
H      -0.06002682      2.05168823     -0.06226800
H       2.62856737      1.48462135      0.03455027
