14
b3lypvtz=-231984.4909812
C      -2.10616760     -0.39896330      1.01154492
C      -1.96245854     -0.24803402     -0.29857920
O      -0.80106310     -0.05912216     -0.99952616
C       0.36735604      0.22075737     -0.29663138
C       0.54530873      1.62476346      0.17486331
C       1.25427871     -0.75961248     -0.20553398
F       2.46100404     -0.56895503      0.36787774
H      -3.09619839     -0.54795677      1.41455326
H      -1.27222220     -0.39224515      1.69786599
H      -2.79696506     -0.27567531     -0.98627648
H       1.49213417      1.73611391      0.69846355
H       0.53316550      2.30755940     -0.67787439
H      -0.26415337      1.92008216      0.84389279
H       1.10463907     -1.76078209     -0.58124999
