16
b3lypvtz=-204464.44998976
C       1.44474455     -1.25907901     -0.02590920
C       0.57528915      0.00002645     -0.00670125
C       1.44426029      1.25946960     -0.02605546
C      -0.43447126     -0.00009383      1.18006688
O      -1.74294755     -0.00008265      0.55219015
C      -1.49578557     -0.00020426     -0.78155804
N      -0.30665627     -0.00018734     -1.20231688
H       0.82636898     -2.15741282     -0.02761234
H       2.09791851     -1.29162969      0.84899161
H       2.06597128     -1.27421277     -0.92133265
H       0.82553787      2.15756534     -0.02775722
H       2.06540107      1.27479088     -0.92153514
H       2.09749502      1.29232236      0.84878847
H      -0.36279890     -0.88894879      1.80654659
H      -0.36285362      0.88865045      1.80670478
H      -2.38372956     -0.00029791     -1.40057628
