18
b3lypvtz=-181877.59815223
C      -2.30537284      0.47282995      0.44711580
C      -1.02706075     -0.32227993      0.71910879
C      -0.10369179     -0.39283750     -0.49075783
C       0.67008614      0.86366931     -0.97930593
N       1.98827963      0.13166719     -0.97722142
C       2.21521796     -0.25343617      0.42357161
C       1.26423238     -1.05820316     -0.36214340
H      -2.88248323      0.02566925     -0.36531715
H      -2.07940544      1.50278059      0.16242612
H      -2.94644653      0.50796041      1.32907044
H      -0.49463365      0.12119096      1.56472320
H      -1.28758904     -1.34111657      1.02318497
H      -0.64728610     -0.83090255     -1.33030806
H       0.66172684      1.73195744     -0.31548250
H       0.41823982      1.18506882     -1.98734758
H       1.86580023      0.40370502      1.21309044
H       3.19786811     -0.67521953      0.59134298
H       1.49251824     -2.07260354     -0.66575050
