18
b3lypvtz=-181902.41205428
C       3.43210585      0.48961749     -0.32904085
C       2.36691689     -0.01698582      0.29831202
N       1.12248004     -0.27156398     -0.24892442
C      -0.06896917     -0.21206184      0.59336399
C      -1.22520847     -0.89038809     -0.08004744
C      -2.43735669     -0.39036121     -0.31322561
C      -2.96616426      0.96810347      0.03483746
H       3.39335687      0.80921782     -1.36305103
H       4.37906892      0.56776610      0.18203585
H       2.44564593     -0.31939057      1.33800394
H       0.98362033      0.11066950     -1.17337685
H      -0.32182770      0.81477669      0.88100633
H       0.16968527     -0.74429003      1.52012371
H      -1.01398214     -1.90274193     -0.40957139
H      -3.14944746     -1.04066195     -0.81300470
H      -2.21225591      1.62470013      0.46495470
H      -3.78719009      0.88878022      0.75317718
H      -3.37764122      1.45774500     -0.85178190
