19
b3lypvtz=-192721.23343459
C      -0.15427289     -1.03632014     -1.22113162
C       0.15682602     -0.42297035      0.12824117
C      -0.71486569     -0.71947707      1.29863881
N      -0.69633389      0.62008835      0.71851706
C      -1.89618706      1.08154803      0.03759055
C       1.63100934     -0.15484084      0.37286269
N       2.10717397      0.89429304     -0.53436163
H       0.24559280     -0.41109872     -2.01958976
H       0.32059007     -2.01677936     -1.29820383
H      -1.22113648     -1.17726592     -1.38253169
H      -0.30038040     -0.81806393      2.29619052
H      -1.59267474     -1.33303195      1.11357871
H      -2.53227728      1.58789279      0.76554166
H      -2.49027172      0.28774505     -0.43191662
H      -1.62330237      1.80564856     -0.73152983
H       2.20133900     -1.06586503      0.17103623
H       1.76675918      0.09018935      1.43344676
H       1.68320749      1.77608449     -0.26715722
H       3.10920464      1.01222370     -0.44922196
