11
b3lypvtz=-189695.70196556
C      -2.92287608     -0.01955704     -0.00019164
C      -1.72065479      0.02623168     -0.00022705
C      -0.31426170      0.08202888     -0.00017977
C       0.57399008      1.13784850      0.00001529
N       1.86315399      0.68752854     -0.00014127
C       1.78010535     -0.62375435      0.00000910
N       0.49023485     -1.04560351     -0.00001425
H       0.16046833     -1.99571526      0.00003293
H      -3.98371064     -0.05049706     -0.00003395
H       0.33391325      2.18738240      0.00021914
H       2.61219436     -1.30848076      0.00014448
