12
b3lypvtz=-226238.25889256
C       0.42759515      1.38226195      0.22992271
C      -0.37411679      0.28398234      0.23538135
C       0.50573904     -0.84397810      0.13340935
C       1.77099625     -0.35895109      0.07224381
O       1.72683596      1.01510773      0.13224673
O       0.08651960     -2.13035586      0.10885044
N      -1.78464493      0.10887681      0.32103079
H       0.22967892      2.43831855      0.28562005
H       2.74205585     -0.80889865     -0.00614666
H      -0.87945109     -2.09284207      0.18125690
H      -2.27664160      0.51422205     -0.46468789
H      -2.17456636      0.49225633      1.17209314
