15
b3lypvtz=-214525.24847856
C       2.93396393      0.33986079      0.02169442
C       1.80054478     -0.36266664      0.11098507
N       0.54905745      0.12527240      0.41918702
C      -0.63918297     -0.60762800      0.07775044
C      -1.86411595      0.27173978      0.15645954
N      -1.78074883      1.51376812      0.34222875
O      -3.05426271     -0.37250686     -0.01184649
H       2.95732399      1.41338662      0.15854726
H       3.86878353     -0.16205641     -0.17274822
H       1.82634378     -1.43879864     -0.03168577
H       0.40845859      1.12602786      0.42787445
H      -0.60468057     -1.02139694     -0.94291642
H      -0.78701947     -1.46117390      0.75472028
H      -2.69674123      1.95748306      0.35578401
H      -2.91772432     -1.32131122     -0.11673333
