14
b3lypvtz=-203682.32514962
C      -2.47586454     -0.16249537      0.54151314
C      -1.63459112     -0.75715215     -0.29275613
O      -0.26475354     -0.66777057     -0.28503679
C       0.41130915      0.53273375     -0.12701373
N      -0.06818961      1.69972457     -0.20032314
C       1.84567755      0.32095536      0.10835910
C       2.43760615     -0.86357067      0.22532179
H      -3.53296752     -0.36135661      0.44615032
H      -2.15370800      0.50306222      1.32897542
H      -1.96841897     -1.44294696     -1.06093773
H      -1.07085472      1.70030335     -0.37392143
H       2.40537563      1.24303202      0.18644108
H       3.50192392     -0.93550834      0.40253598
H       1.88108661     -1.78673760      0.14785712
