14
b3lypvtz=-180344.26479069
C      -0.53097678      1.93022047      0.63445039
C      -0.68702639      0.67610548      0.23246355
C       0.06916226     -0.24459497     -0.73573007
C      -0.73548974     -1.39600104     -0.04387613
N      -1.58348802     -0.35189332      0.56364647
C       1.51459755     -0.28056656     -0.68644341
C       2.71337493     -0.31917884     -0.65042385
H      -1.17628260      2.37178977      1.38170839
H       0.25901046      2.53809291      0.21986908
H      -0.27021827     -0.09543904     -1.76270311
H      -1.26409280     -2.08480269     -0.70214063
H      -0.12222935     -1.95171232      0.66766474
H      -1.95994392     -0.44395910      1.49601371
H       3.77360265     -0.34806077     -0.61449914
