14
b3lypvtz=-201286.52874861
C       2.84514157     -0.18309501      0.52801891
N       2.18235680     -0.08069508     -0.54283310
C       0.84256631      0.29231349     -0.50442538
N      -0.03225114     -0.36077938      0.14291380
C      -1.36583000      0.10132381      0.10098016
C      -2.36651822     -1.01212322     -0.05943993
N      -1.61624304      1.33889417      0.25479076
H       2.42849491      0.05900496      1.50844608
H       3.87661006     -0.52272901      0.48176167
H       0.59813988      1.14770671     -1.13628329
H      -2.17920069     -1.55604054     -0.98762187
H      -3.38723836     -0.63367807     -0.06708744
H      -2.25206413     -1.72985197      0.75430404
H      -2.62072995      1.50638116      0.24650459
