15
b3lypvtz=-216914.45252232
C      -1.25854046     -1.19451738      0.21858837
C      -0.09675139     -0.26452372      0.50286073
C      -1.29864841      0.22246421     -0.25188955
O      -2.21050721      1.07467908      0.38134868
C       1.23152196     -0.42140705     -0.18459301
C       2.02307680      0.85954007     -0.30043227
O       1.64575245      1.94036749      0.07378128
H      -1.13355608     -1.97814136     -0.51704346
H      -1.90203027     -1.44626214      1.04947688
H      -0.04119784      0.09927215      1.52079615
H      -1.17887463      0.39650180     -1.31841520
H      -1.79085334      1.93708559      0.47578168
H       1.11581196     -0.81762332     -1.20131627
H       1.87282884     -1.15333662      0.32361021
H       3.02196760      0.74590121     -0.77255422
