17
b3lypvtz=-194297.77705457
C       0.59400087      0.40445784      0.41804375
C       0.72024932      0.63198982      1.93179237
C       1.47925693      2.00467509      2.17284027
C       0.02282295      2.68651403      2.04279787
C      -0.40965406      1.29952193      2.59953515
O      -1.23951312      0.06704662      2.54637504
C       0.08079551     -0.62726029      2.62261709
H       0.65441788      1.32359389     -0.16333996
H      -0.33993317     -0.09592879      0.16477251
H       1.42082354     -0.23404576      0.09592148
H       1.88929810      2.13834585      3.17109827
H       2.21632214      2.29096545      1.42476338
H      -0.22379729      2.88802648      1.00506848
H      -0.18565777      3.56133259      2.65596807
H      -0.19305257      1.39527777      3.67186997
H       0.06322865     -1.56131618      2.06325990
H       0.36049209     -0.78959636      3.66551637
