16
b3lypvtz=-204424.90756184
C       3.06464479     -0.49465543      0.70060076
C       1.84943185     -0.03617152      0.43341395
O       0.97585423     -0.71207353     -0.37052523
C      -0.18722724     -0.00883347     -0.72534127
C      -1.41889811     -0.82463034     -0.96025396
C      -1.31796154      0.10308382      0.24356748
N      -2.03668342      1.34548436      0.37646479
H       3.71252730      0.06148127      1.36022434
H       3.42530966     -1.42194068      0.27848586
H       1.46901475      0.89146860      0.84859495
H      -0.00243891      0.83481908     -1.38588907
H      -1.33884697     -1.88836943     -0.78265738
H      -2.06003436     -0.53805747     -1.78324483
H      -1.15542763     -0.39900560      1.18923421
H      -3.02540747      1.17739352      0.52401861
H      -1.95385694      1.91000683     -0.46011184
