13
b3lypvtz=-216164.87801677
C      -0.22245731     -1.21719536     -1.58188480
C      -0.32492328     -0.22209473     -0.70292575
C      -1.66864919      0.13184192     -0.15167935
O      -2.68865732     -0.46137310     -0.40339617
C       0.84775995      0.59411842     -0.23683596
C       1.14148565      0.49811801      1.24554109
O       0.46269795     -0.09175987      2.04384807
H      -1.10574937     -1.76406573     -1.88351449
H       0.72634625     -1.50642868     -2.01466062
H      -1.68362145      1.01479412      0.51608881
H       0.69956903      1.66258557     -0.44823297
H       1.76026166      0.32250152     -0.77490692
H       2.05573743      1.03895790      1.56605905
