12
b3lypvtz=-249589.70367717
N       2.39975540     -0.63340625      0.00003012
C       1.22800109      0.03624368     -0.00015286
O       1.19201876      1.26414463     -0.00011509
C      -0.01994012     -0.83239645     -0.00008078
C      -1.39252223     -0.14043011     -0.00001945
O      -2.39315918     -0.80562939     -0.00001221
O      -1.40433819      1.18868397      0.00019091
H       2.44266413     -1.63653612      0.00013661
H       3.25765395     -0.10698145      0.00023363
H      -0.00131845     -1.49136341     -0.87056691
H      -0.00121322     -1.49122020      0.87051453
H      -0.46823894      1.51337009      0.00010248
