17
b3lypvtz=-191973.03532714
C       2.52775706      0.42601871     -0.04163202
C       1.22525034     -0.29713086      0.17135595
C       0.10171637     -0.21829528     -0.81691589
N       0.93127854     -1.42207485     -0.70864698
C      -1.30015280     -0.26083826     -0.31025895
N      -1.65359129     -1.25160059      0.40512940
C      -2.17597058      0.90132792     -0.70213896
H       2.48407648      1.44265860      0.35479679
H       3.34160018     -0.09805665      0.46430000
H       2.77057153      0.47395506     -1.10313125
H       0.90281210     -0.39723301      1.20334428
H       0.25889269      0.36753348     -1.71615128
H       0.37724397     -2.11275312     -0.20467714
H      -2.61915689     -1.16650839      0.71736750
H      -1.71544419      1.84612657     -0.40330503
H      -3.16231978      0.82953818     -0.24557221
H      -2.29456370      0.93733250     -1.78783569
