15
b3lypvtz=-216907.99204246
C       2.99383155     -0.05468578     -1.14655530
C       2.05692700     -0.54304664     -0.34819295
O       0.74261184     -0.19180416     -0.47563384
C      -0.16140687     -0.72967638      0.39840039
C      -1.45271632     -0.41468601      0.37573878
C      -2.10343530      0.56747527     -0.54776108
O      -2.84384234      1.56549749      0.16229350
H       4.01941380     -0.36132517     -1.01298135
H       2.75929501      0.64630518     -1.93459069
H       2.26806668     -1.24737461      0.44971608
H       0.25106355     -1.44122312      1.10548440
H      -2.08965983     -0.89941600      1.10461044
H      -1.36249022      1.02139874     -1.21025887
H      -2.84331422      0.06500457     -1.17418563
H      -2.23424434      2.01765662      0.75421611
