13
b3lypvtz=-237087.42597215
N       2.59777486     -0.72527617     -0.16956283
C       1.56841927      0.13921922     -0.01184002
O       1.69014139      1.34239028      0.08425360
N       0.31873114     -0.58938539      0.01271995
C      -0.71166445      0.11567965      0.23765785
C      -2.08003119     -0.49333629      0.30656389
O      -3.05830204      0.32221669     -0.32531395
H       3.53751313     -0.37342861     -0.19719792
H       2.41662380     -1.70942803     -0.24274562
H      -0.64227193      1.19763614      0.38484270
H      -2.05422999     -1.50979632     -0.09538738
H      -2.38011592     -0.55589207      1.35655782
H      -2.88383606      0.33347391     -1.27172809
