11
b3lypvtz=-213008.05867676
N      -2.71829039     -0.02486373     -0.48718184
C      -1.68002151     -0.04550699      0.00664605
C      -0.35645232     -0.02118543      0.63482241
C       0.51433244      1.18686018      0.17201206
O       1.68893504      0.55710077     -0.39576858
C       1.49351534     -0.77354419     -0.26903325
N       0.43675390     -1.21560389      0.26695506
H      -0.50680586     -0.01624272      1.71611053
H       0.04021530      1.79138121     -0.59709486
H       0.82999813      1.81782377      0.99964450
H       2.29703493     -1.38814499     -0.65171309
