15
b3lypvtz=-214518.86442308
C      -1.91242608      0.16039877      0.54659661
C      -0.68617063     -0.06824334     -0.31193299
N      -0.00282375     -1.36853845     -0.12843337
C       1.26557806     -0.81213450     -0.09051258
N       2.39787114     -1.34552914     -0.24563053
C       0.67419105      0.59323029      0.09225952
O       1.24200242      1.56437869     -0.74833631
H      -2.26880479      1.18782088      0.44279171
H      -1.68946037     -0.02857232      1.59789267
H      -2.72888070     -0.50196041      0.25205304
H      -0.88799218      0.15435668     -1.36384830
H      -0.22643853     -2.23510332     -0.59548131
H       3.13302325     -0.64696512     -0.16651486
H       0.67385736      0.90733005      1.14026146
H       1.01637376      2.43953125     -0.42116476
