16
b3lypvtz=-181152.12373787
C       2.34139390     -1.14959822      0.01813032
C       1.84892800      0.29832284      0.01277298
C       0.42062952      0.44118916     -0.46019202
C      -0.42211336      1.60683544     -0.05857843
C      -0.71764226      0.23616184      0.52858130
C      -1.89976771     -0.46909425      0.12876817
N      -2.84719353     -1.03631670     -0.20100239
H       2.29155049     -1.58555514     -0.98137625
H       1.73588395     -1.77124337      0.67990143
H       3.37682434     -1.21021345      0.35536213
H       2.49129698      0.90340164     -0.63384841
H       1.93944850      0.72619137      1.01571034
H       0.22704977      0.04559566     -1.45019216
H      -1.13326040      2.00352055     -0.76826953
H      -0.00111362      2.33542354      0.62084522
H      -0.43906556      0.07940511      1.56268430
