17
b3lypvtz=-194300.99211191
C       0.83991794     -0.27853606      0.07946205
C       0.50374084      0.86073053     -0.86785242
C      -0.81810886      1.71659145     -0.49521325
C       0.20249561      2.62775692      0.24605991
O       0.76872584      3.99770744      0.37710269
C       2.06528356      3.35723037      0.02354414
C       1.23667004      2.26394571     -0.72371532
H       0.09790645     -1.07547207     -0.00361206
H       0.87076241      0.03474485      1.12322130
H       1.81308129     -0.70652131     -0.16838989
H       0.50299443      0.49448395     -1.89366643
H      -1.25000207      2.15728434     -1.39110559
H      -1.58960979      1.22405941      0.09681393
H       0.36927920      2.16920369      1.22581874
H       2.58230451      3.02853422      0.92778422
H       2.68848289      4.02300336     -0.57064142
H       0.97027571      2.77075319     -1.65401061
