19
b3lypvtz=-195129.0146265
C      -3.33349557      0.33129226     -0.03326848
C      -2.05755214     -0.47393004     -0.27587918
C      -0.82556662      0.21102427      0.28824067
O       0.31134199     -0.60341378      0.02683492
C       1.50549656     -0.06575939      0.50800436
C       2.25714277      0.93003253     -0.33332700
C       2.75198912     -0.49406820     -0.18391102
H      -3.27747987      1.31749145     -0.49943460
H      -3.51467976      0.47965290      1.03361361
H      -4.20343634     -0.17977639     -0.44693489
H      -2.14337279     -1.46452486      0.17670682
H      -1.90820130     -0.63178723     -1.34664253
H      -0.93426896      0.36216391      1.37147450
H      -0.69048457      1.20065846     -0.16750941
H       1.53414612      0.06138188      1.58796838
H       1.81636126      1.19622125     -1.28408397
H       2.79989487      1.72599083      0.15814839
H       2.62553720     -1.15024034     -1.03341588
H       3.63483004     -0.68190251      0.41103231
