15
b3lypvtz=-214488.40694555
C      -2.93439263      0.85813356      0.12513870
C      -2.49478930     -0.39220242      0.05720169
O      -1.21556738     -0.84591255     -0.05366386
N      -0.25492149      0.20172881     -0.11537456
C       0.91404768     -0.31582243     -0.11041352
N       2.03407029      0.44397586     -0.28294178
C       3.31370042      0.01668057      0.25692301
H      -2.27042146      1.70608942      0.09679730
H      -3.99739560      1.02685121      0.20872384
H      -3.15515624     -1.24974450      0.08451190
H       1.06957353     -1.38835963     -0.01083719
H       1.86234394      1.43855860     -0.29422892
H       3.45691780     -1.04382260      0.04988621
H       3.40259457      0.16958136      1.33820948
H       4.11548385      0.56266473     -0.23803028
