17
b3lypvtz=-194382.99529469
C      -2.16021846      0.68385609      0.00853519
C      -1.37989727     -0.38964880      0.03092519
C       0.13712557     -0.40543427      0.01868520
C       0.61984084     -1.56232101     -0.88523311
C       0.68071925     -0.57182578      1.44494726
C       0.64790078      0.88343069     -0.61255299
O       1.34814739      1.69825484     -0.07129827
H      -1.76520531      1.69186880     -0.03109265
H      -3.23761234      0.59115203      0.04219816
H      -1.84016618     -1.37298495      0.08125317
H       1.70920452     -1.61830896     -0.89919010
H       0.26753207     -1.44173963     -1.91120230
H       0.23733595     -2.51217375     -0.50879655
H       1.76940273     -0.63355262      1.43673861
H       0.28560687     -1.48268412      1.89709327
H       0.39695115      0.27445733      2.06793010
H       0.32761344      1.02415012     -1.66643417
