17
b3lypvtz=-194357.41517847
C       1.84465651     -0.52982674     -0.15997539
C       0.66923650      0.15461172     -0.82033077
C      -0.74800920     -0.38334206     -0.88534451
C      -0.43220594      0.90060276     -0.12969529
C      -0.85220918      0.25747269      1.19421218
C      -1.14782460     -1.06844644      0.42396850
O      -0.79331338      2.19727967     -0.48781318
H       1.57166494     -1.01408980      0.77725792
H       2.63964596      0.18615405      0.06180206
H       2.26547587     -1.29628046     -0.81461779
H       0.92302782      0.64815494     -1.75372866
H      -1.25237102     -0.50244997     -1.83404321
H      -1.76399158      0.71429672      1.57497707
H      -0.10931650      0.22751020      1.99429648
H      -2.20190785     -1.33772186      0.45465942
H      -0.55953715     -1.94049605      0.71293672
H      -0.05302121      2.78657059     -0.30856155
