20
b3lypvtz=-182654.79395565
C       2.44242201     -1.05460157     -0.18043282
C       1.73120807      0.09866587      0.53322188
C       0.74807814      0.83049625     -0.35546804
C      -0.39260902      1.60333737      0.20467790
N      -0.63454413      0.40166207     -0.58612384
C      -1.18420757     -0.76148345      0.10294302
C      -2.70738741     -0.72081189      0.06697893
H       3.17793086     -1.52757803      0.47223355
H       2.96715364     -0.69987842     -1.06999946
H       1.73615084     -1.82237744     -0.49988075
H       2.47541587      0.82509613      0.87420611
H       1.23675106     -0.26759972      1.43429259
H       1.20563990      1.21784656     -1.26271723
H      -0.54444727      1.53587601      1.27954930
H      -0.70315459      2.54373405     -0.23581170
H      -0.84874071     -0.83915269      1.14657919
H      -0.82825396     -1.65479342     -0.41629776
H      -3.06358698     -0.66816015     -0.96200561
H      -3.08682979      0.15302255      0.59998144
H      -3.12828795     -1.61134307      0.53727331
