14
b3lypvtz=-250300.89772037
C      -0.49484351     -0.67256175     -0.75258565
C      -1.46459154     -0.27853931      0.34832436
N      -2.13953354     -1.14434937      0.96589750
O      -1.55383042      1.06208252      0.55147987
O       0.53708702      0.29219647     -0.92514450
C       1.64246317      0.10207659     -0.03659591
O       2.60787261      1.05998337     -0.29428209
H      -1.03795208     -0.71105553     -1.69827181
H      -0.10157853     -1.66900300     -0.54549823
H      -2.78383026     -0.70880836      1.62520798
H      -0.89497746      1.48357228     -0.02334877
H       1.28550595      0.13835687      1.00148944
H       2.09865346     -0.87122571     -0.23357996
H       2.29955511      1.91727492      0.01690777
