11
b3lypvtz=-238883.37282034
C       2.30178891     -0.55025078      1.05860423
N       1.11603411     -0.97357083      0.88567723
N       0.31069835     -0.02021633      0.25347649
C      -0.88733117     -0.36742293      0.04582767
C      -1.87779991      0.52007580     -0.61341348
N      -1.64953793      1.69073308     -1.03309138
F      -1.39974073     -1.55457098      0.38815314
H       2.62456875      0.44089642      0.74230267
H       3.00619149     -1.21664867      1.54212016
H      -2.87101788      0.08810636     -0.72506054
H      -0.67385398      1.94286885     -0.85182634
