16
b3lypvtz=-204473.0751012
C       2.30210596     -0.64618563     -0.23405320
C       1.06363601     -0.04541150      0.39351799
C       0.60181860      1.29895084     -0.17828192
C      -0.90939739      1.25395789      0.05689110
C      -1.22000505     -0.22448054      0.00155102
N      -2.35739804     -0.73602466     -0.17381099
O      -0.06194933     -0.93556618      0.16983484
H       2.16935116     -0.76005093     -1.31074866
H       3.16290947      0.00115012     -0.05660275
H       2.51826284     -1.62528519      0.19306341
H       1.19778820      0.03519617      1.47784889
H       1.09719374      2.14196082      0.30105145
H       0.82281393      1.33833647     -1.24715010
H      -1.17076399      1.62974718      1.04928319
H      -1.50294861      1.80320711     -0.66907529
H      -2.30629047     -1.75387196     -0.15530198
