15
b3lypvtz=-214527.9050964
C       3.28143262      0.21486198     -0.03357204
N       2.06770581     -0.56626137      0.04998467
C       0.95694933      0.05369439     -0.01619099
C      -0.31058680     -0.63537784      0.04900841
C      -1.50725454     -0.01894387      0.01669420
N      -2.73778985     -0.65434300     -0.11834427
O      -1.61073863      1.33833044      0.07861253
H       3.10703747      1.29487589     -0.14616452
H       3.88212638     -0.13018578     -0.87958770
H       3.88478912      0.05210308      0.86369764
H       0.91592065      1.14501490     -0.12745150
H      -0.28302258     -1.71355593      0.12824733
H      -2.67268493     -1.65926817     -0.18052831
H      -3.42421200     -0.37173494      0.57016438
H      -2.39883804      1.60486522     -0.41116685
