15
b3lypvtz=-214534.42562264
C       2.70341456     -0.24951747      0.11657191
C       1.25772045     -0.63709764      0.16252851
C       0.21466834      0.16569926     -0.05745646
O       0.30764554      1.51044216     -0.32973047
C      -1.21100488     -0.29650776     -0.00826928
N      -1.61823647     -1.48574284     -0.23980311
N      -2.09907660      0.68033516      0.36689492
H       3.15590382     -0.26590185      1.11226804
H       2.87586890      0.74439025     -0.30362398
H       3.27181506     -0.94974430     -0.49993507
H       1.03650861     -1.66348841      0.42074500
H       1.22085294      1.79849169     -0.23040205
H      -0.84722575     -2.08716697     -0.50909670
H      -1.81959078      1.63787411      0.25046328
H      -3.06976673      0.46214661      0.21719947
