15
b3lypvtz=-212100.52146234
C      -1.94983052     -1.22068624      0.05562418
C      -1.54520289      0.18925147      0.34120477
C      -0.28671117      0.64566785      0.49655640
N       0.02525279      1.96283193      0.83969489
N       0.77636901     -0.26620932      0.36608624
N       1.91139545      0.24944819      0.46259232
N       2.91636240     -0.62910431      0.25587240
H      -1.08617542     -1.87655756     -0.01498306
H      -2.61167376     -1.60613482      0.83796720
H      -2.50915481     -1.28886591     -0.88301307
H      -2.34556046      0.91464400      0.44712995
H       0.95379729      2.23794882      0.55738072
H      -0.67762407      2.63521754      0.57860678
H       3.77048365     -0.34108394      0.70462869
H       2.65827252     -1.60636769      0.35778289
