11
b3lypvtz=-233822.08442209
C      -2.44113226      0.97750626      0.33540196
N      -1.19815701      0.73374522      0.25206782
C      -0.82001152     -0.60694007      0.27570205
N       0.37319835     -1.05292488      0.20347325
O       1.31783989     -0.04755389      0.09339612
N       2.58180459     -0.68683414      0.02367121
N       3.43086552      0.18274821     -0.07423296
H      -2.78061454      2.00890004      0.32109022
H      -3.20527809      0.19621260      0.42271137
H      -1.58025738     -1.38381986      0.36288746
H       4.32174243     -0.32103947     -0.12116850
