15
b3lypvtz=-170283.93992093328
C      -1.57717626      0.54081087     -0.35732404
C      -0.32780644      1.32157282      0.02255988
C       0.91599907      0.94624243      0.35035798
C       1.61070168     -0.40701457      0.38582245
C       0.89706505     -1.46041428     -0.44406992
C      -0.39155786     -1.52109100     -0.25689352
C      -1.51046955     -0.92289836      0.04272722
H      -1.77085798      0.65877493     -1.42966228
H      -2.42824159      1.01215593      0.14186630
H      -0.50250751      2.39395882      0.04455710
H       1.57938149      1.75921748      0.63298682
H       2.62572652     -0.27120987      0.00297153
H       1.73474545     -0.72857976      1.42613976
H       1.41933419     -1.97204708     -1.24316248
H      -2.27433624     -1.34947836      0.68112322
