14
b3lypvtz=-203659.89389476
C      -1.13338920      0.92396167     -0.80742220
C      -1.65860579     -0.16655100      0.09922487
C      -0.20376227     -0.09864881     -0.23769878
C       0.99479609      0.05493680      0.64343727
N       1.37560649      0.70417148      1.64908279
C       1.66845430     -0.98891300     -0.22419843
O       0.46232569     -1.08417195     -1.03856665
H      -1.07007618      1.93605858     -0.42918800
H      -1.34182323      0.83878982     -1.86508437
H      -2.21519382     -0.97302958     -0.35803871
H      -1.95909939      0.08858781      1.10723551
H       0.64838217      1.33566321      1.98911503
H       1.90518095     -1.93180131      0.27227821
H       2.52720419     -0.63905373     -0.80017652
