18
b3lypvtz=-181879.9541993
C      -2.14433638     -0.04199299      0.68594473
C      -1.27663155     -0.30813646     -0.54736712
C       0.20215049     -0.15288167     -0.31676890
C       1.16653072      0.29170720     -1.38757810
C       1.05576664      1.09149743     -0.11883219
N       1.77640377      0.48374588      1.00236802
C       1.01310257     -0.79096990      0.81788814
H      -1.92962051     -0.74674426      1.49034773
H      -3.20355898     -0.13658240      0.44175380
H      -1.97646992      0.96406900      1.07388280
H      -1.47488991     -1.31878538     -0.92216982
H      -1.57596260      0.37003110     -1.35134779
H       2.07001202     -0.27520481     -1.59210511
H       0.70526719      0.73369362     -2.26231327
H       0.77872374      2.13788214     -0.10287889
H       2.77479885      0.39268273      0.83909887
H       0.43224014     -1.02664853      1.71016192
H       1.60647371     -1.66736273      0.53991517
