15
b3lypvtz=-214513.44062652
C      -1.03703432      0.82565148     -0.65349958
C       0.02542620      0.11090102      0.23664362
C      -0.87047384     -1.13609175      0.11709308
N      -1.98886896     -0.25791145     -0.32101669
C       1.43463734      0.05227069     -0.26552168
N       1.94176523     -0.98300768     -0.77624509
O       2.14052374      1.22355565     -0.15288488
H      -0.72609360      0.85453070     -1.70321520
H      -1.36090991      1.82291346     -0.34936427
H       0.01410173      0.51670860      1.25086224
H      -0.48917520     -1.81545389     -0.64719579
H      -1.06766688     -1.69243768      1.03359551
H      -2.52384555     -0.60834387     -1.10543010
H       2.90480741     -0.81213269     -1.06383329
H       1.60280663      1.89884740      0.27562989
