12
b3lypvtz=-200517.41180336
C       1.98912736     -0.55385284     -0.58258214
N       0.86846581     -0.09708740     -0.93897072
C      -0.01518309      0.39622310      0.12164573
C      -1.32541301     -0.37949104      0.05574546
N      -1.70856676     -1.03599968      1.06043150
C      -0.27421904      1.82699938     -0.08905220
N      -0.49211034      2.94595114     -0.23945694
H       2.65947768     -0.94591653     -1.34300975
H       2.33408120     -0.58157634      0.45625490
H       0.39787732      0.26225818      1.12857156
H      -1.84429108     -0.32097584     -0.90395280
H      -2.58924607     -1.51653213      0.87678357
