20
b3lypvtz=-205967.69796178
C       0.13258287      1.67738268     -0.67666365
C       0.66661499      0.29085653     -0.29971508
C       1.65429671      0.36149508      0.87075044
O       2.12862987     -0.92453229      1.21879681
N      -0.35104049     -0.73656315     -0.00033408
C      -1.36926561     -0.34470417      0.96647347
C      -0.94348563     -1.33808661     -1.18513070
H      -0.57734604      1.62362063     -1.50305756
H       0.95495575      2.32178352     -0.99216690
H      -0.36405313      2.16468795      0.16375378
H       1.22680665     -0.10510583     -1.15054116
H       1.18443053      0.85347717      1.73443252
H       2.51415576      0.97025167      0.58433540
H       1.37347423     -1.51277011      1.06317229
H      -2.09193167      0.38463643      0.57067777
H      -0.90808633      0.08264831      1.85589698
H      -1.92788629     -1.22927870      1.27589486
H      -0.15910303     -1.70090203     -1.84960217
H      -1.55797006     -2.19087097     -0.89152389
H      -1.58587907     -0.64802611     -1.75544913
