11
b3lypvtz=-233936.88207828
N       0.87334765      0.03012497      0.13681927
C       0.31154241      0.28046148     -1.10074724
N      -0.35006584     -0.57561369     -1.81148115
N      -0.79843021      0.17189084     -2.89565113
H      -1.37654965     -0.25212735     -3.59655692
C      -0.41007597      1.48382075     -2.86999163
O      -0.63369157      2.38877298     -3.64543725
N       0.34035900      1.52489791     -1.68087106
H       0.68291663      2.37883624     -1.27825032
H       0.78942952     -0.94533577      0.38670299
H       1.82811804      0.34837164      0.23156445
