13
b3lypvtz=-239471.86822301
O       2.87240704     -1.44891701     -1.10319612
C       2.93898659     -0.43908296     -0.46610808
O       1.89484442      0.31329207     -0.04376915
C       0.61197484     -0.10993897     -0.35795218
C      -0.43208503      0.60202619      0.03419395
C      -1.83513791      0.21880730     -0.29744235
O      -2.56187969      0.06612391      0.92365416
H       3.86477191      0.03691252     -0.12443351
H       0.56389462     -1.02652767     -0.92720634
H      -0.28573619      1.50310301      0.61761916
H      -2.29128062      1.00513199     -0.91234804
H      -1.84356617     -0.70754687     -0.88291141
H      -3.49699382     -0.01328351      0.71339990
