17
b3lypvtz=-217680.27039926
C      -1.85522247     -1.64657052     -0.25976032
C      -1.44580265     -0.55512720      0.37369272
C      -0.50134967      0.46411080     -0.19895157
C      -1.12424706      1.85062235     -0.27452659
O       0.66381483      0.59122574      0.64493271
C       1.59984177     -0.44781227      0.52468593
O       2.29521290     -0.42716242     -0.70219596
H      -1.51624201     -1.87966951     -1.26258620
H      -2.54781862     -2.34317260      0.19461798
H      -1.79391651     -0.34674057      1.38171931
H      -0.18140501      0.14813658     -1.19559301
H      -0.40618353      2.56257970     -0.68188473
H      -2.00870674      1.83787419     -0.91168569
H      -1.41718853      2.19062211      0.71999879
H       1.12229555     -1.42898280      0.57027342
H       2.27681749     -0.32110699      1.37271136
H       2.79430026      0.39573641     -0.74689215
