16
b3lypvtz=-209439.25807574
C       2.34572647      1.34778720     -0.04326752
C       2.44541893     -0.12033522      0.36309107
C       1.46118002     -1.03606609     -0.39055985
C       0.05700895     -0.75414777     -0.11409799
C      -1.09549261     -0.50986814      0.12447902
C      -2.49071455     -0.23264733      0.41747757
F      -2.93713481      0.91257896     -0.24872627
H       1.34637211      1.74230107      0.14434106
H       2.56034159      1.47721936     -1.10656418
H       3.05763221      1.95680842      0.51552715
H       2.26990705     -0.22289944      1.43629016
H       3.45657781     -0.48917406      0.17384308
H       1.63472478     -0.95016783     -1.46814384
H       1.66329078     -2.07972303     -0.13265075
H      -3.12722946     -1.06251616      0.10155155
H      -2.63916927     -0.06566295      1.48693673
