19
b3lypvtz=-192737.35752898
C       2.51626818     -0.54335160     -0.43998242
N       1.51200600     -0.36438982      0.30002093
C       0.39574713      0.41743092     -0.21189103
C       0.19593087      1.63821311      0.68626586
C      -0.85949795     -0.50208795     -0.32302856
C      -1.34393999     -1.03691904      1.02073888
N      -1.98190765      0.11671162     -1.03059582
H       2.60176691     -0.12694344     -1.45260494
H       3.35357352     -1.13551716     -0.07638203
H       0.61175555      0.76808700     -1.23489505
H      -0.67416142      2.21586575      0.37035399
H       0.06394985      1.34155978      1.72601515
H       1.06665868      2.29242697      0.63425504
H      -0.54301691     -1.35558021     -0.92998085
H      -0.52588294     -1.49952799      1.57032593
H      -2.13131037     -1.77286310      0.86137317
H      -1.75850040     -0.23724585      1.63888883
H      -1.68984430      0.49933384     -1.92268908
H      -2.37628277      0.87862716     -0.49101101
