11
b3lypvtz=-212984.64107741
N      -2.45544505      0.40187230     -0.00011473
N      -1.66223658     -0.56141000     -0.00013047
C      -0.31213960     -0.19664257     -0.00003724
C       0.69265178     -1.11896118      0.00001260
O       1.89182720     -0.50169104     -0.00002498
C       1.64615077      0.84947959     -0.00003317
C       0.32017251      1.09618322      0.00002312
H      -3.40112471     -0.00103823      0.00003164
H       0.68962007     -2.19395261      0.00000059
H       2.51847596      1.47773642     -0.00002095
H      -0.17197235      2.05158310      0.00003959
