13
b3lypvtz=-169508.71042472
C      -2.84922389      0.15780704      0.00007381
C      -1.76095693     -0.35593779      0.00007664
C      -0.50947809     -1.01174989      0.00005588
C       0.69776517     -0.40542124      0.00001697
C       1.97936188     -1.19775632     -0.00000467
C       0.82871209      1.00979353     -0.00000639
C       0.99995967      2.20038796     -0.00002654
H      -3.80056185      0.62799826      0.00009780
H      -0.53646742     -2.09604218      0.00007278
H       2.58192967     -0.95409558     -0.87741637
H       2.58197608     -0.95406990      0.87736801
H       1.77856169     -2.26810291      0.00001626
H       1.12676393      3.25414503     -0.00004519
