12
b3lypvtz=-221458.59436165
N      -2.29239477     -0.50077537     -0.83721970
C      -1.08426732     -0.03090374     -0.36463414
N      -0.88924478      1.22407264     -0.01306532
N       0.45426698      1.20555948      0.32121936
H       0.93248766      2.06454481      0.52271875
C       0.95184122     -0.03081866      0.14572522
N       2.27836409     -0.36397101      0.32588084
N       0.00815441     -0.85059127     -0.27573757
H      -3.08338276      0.06219536     -0.56780476
H      -2.42913319     -1.48575811     -0.67648458
H       2.73311883      0.06884520      1.11503692
H       2.42018963     -1.36229933      0.30436497
