15
b3lypvtz=-191221.42664295
C      -1.56884339      0.30952717      0.58781556
C      -0.70755751     -0.90150975      0.30593747
C      -1.04939648      0.05172220     -0.80580624
N       0.18057556      0.68590088     -1.18708697
C       1.22037321      0.40387373     -0.32202056
N       2.29588872      1.08359090     -0.29694182
C       0.78924654     -0.79022090      0.53213424
H      -1.14191790      1.13741713      1.13985173
H      -2.61839498      0.12852582      0.77718000
H      -1.17140879     -1.87591443      0.35020228
H      -1.72565254     -0.21182908     -1.60682242
H       0.18154529      1.59486979     -1.62322332
H       2.94502618      0.70543679      0.38684657
H       1.06822541     -0.63026152      1.57429581
H       1.30229071     -1.69112872      0.18763766
