13
b3lypvtz=-169503.56671702
C      -3.38024602     -0.83005543      0.00001414
C      -2.49203663     -0.02626592      0.00000381
C      -1.42095984      0.97244805      0.00001724
C      -0.07572599      0.39816681      0.00002391
C       1.04121229     -0.05070001      0.00003482
C       2.33719236     -0.63147072      0.00002543
C       3.48215221      0.05428992     -0.00002073
H      -4.16217867     -1.54755161     -0.00003624
H      -1.53812587      1.62284421      0.87365519
H      -1.53811320      1.62285351     -0.87361547
H       2.36719496     -1.71671238      0.00006717
H       3.49651603      1.13573624     -0.00008236
H       4.43397439     -0.45814467      0.00000708
