17
b3lypvtz=-194386.98993843
C       2.71890925      0.03520892      0.03840755
C       1.37721646     -0.62636893     -0.27633684
C       0.19620630      0.05404284      0.40245463
C      -0.31213807      1.44660194     -0.09235246
C      -1.77845758      0.92357823     -0.10300968
C      -1.21232670     -0.48421311      0.10943992
O      -1.66176322     -1.58751422     -0.01091937
H       3.53803622     -0.47639525     -0.46903716
H       2.92645688      0.01366761      1.11050013
H       2.73400117      1.07949849     -0.28015864
H       1.21184383     -0.63161982     -1.35802628
H       1.39489498     -1.67421112      0.03277526
H       0.34519766      0.06587828      1.48826619
H      -0.11106810      2.29141517      0.56170200
H       0.04969452      1.68140633     -1.09299546
H      -2.36899025      1.06451769     -1.00790148
H      -2.37035136      1.25396096      0.75271669
