17
b3lypvtz=-191958.9922738
C      -3.51932262     -0.22644357      0.38075868
C      -2.47417629      0.01649653     -0.39930577
C      -1.17739218      0.59927680      0.07476178
N      -0.06880225     -0.28187531     -0.27806683
N       1.16661551      0.29572521     -0.15203084
C       2.17343983     -0.44717129      0.07606184
C       3.55575835      0.11540046      0.13878422
H      -3.49340609     -0.01705997      1.44404952
H      -4.44092999     -0.63352497     -0.01382885
H      -2.52244946     -0.21193765     -1.45952883
H      -1.22688125      0.80715347      1.15216219
H      -0.98279252      1.54928283     -0.42816628
H      -0.14378136     -1.20240410      0.15094404
H       2.05507721     -1.52856074      0.21893373
H       3.52821763      1.19326046     -0.01061360
H       4.02440552     -0.09633283      1.10396899
H       4.19689697     -0.32889535     -0.62830499
