16
b3lypvtz=-204431.74575848
N       1.36863545      1.31725593     -0.51649925
C       0.39607424      0.32851979     -0.15686865
C       0.73627354     -1.11325292     -0.55250031
O      -0.46411834     -1.79622776     -0.12792077
C      -1.24589614     -0.70018863      0.39502608
C      -1.07127528      0.40045382     -0.67343354
C      -0.23445559      0.06833390      1.26610507
H       2.27239023      1.11857886     -0.10270668
H       1.08909257      2.24059071     -0.20973363
H       1.60526656     -1.51186870     -0.02071601
H       0.88606102     -1.22812238     -1.62800707
H      -2.20646340     -1.06202123      0.74463866
H      -1.26454526      0.13296616     -1.71154918
H      -1.56115544      1.33668427     -0.40911617
H      -0.64188876      0.97628343      1.70833732
H       0.33590461     -0.50768526      1.99494413
