11
b3lypvtz=-238902.90279142
C      -2.34231174     -0.92340984      0.00024851
N      -1.07235176     -0.86521156      0.00016598
C      -0.43715380      0.37025095     -0.00017274
F      -1.24916243      1.44793037      0.00014632
N       0.80198887      0.59172276      0.00001095
C       1.71551666     -0.47866542     -0.00007554
N       2.96892977     -0.30675811      0.00006580
H      -2.80788906     -1.90444634      0.00049935
H      -2.99016783     -0.04794139     -0.00019715
H       1.30922416     -1.48779618     -0.00041530
H       3.17801115      0.69421476      0.00028983
