17
b3lypvtz=-194365.66815797
C      -2.33014160     -0.54961434      0.47833493
C      -1.75475742      0.42734610     -0.50221509
C      -0.47536608      0.74181926     -0.70614985
C       0.72836611      0.20848994     -0.00741448
O       1.30687683      1.13498773      0.89753931
C       0.93191992     -1.25324750      0.29606521
C       1.75942775     -0.56388620     -0.76657789
H      -2.79927510     -1.39258291     -0.03835537
H      -3.11946298     -0.07160950      1.06432367
H      -1.58711925     -0.94437502      1.16649653
H      -2.48935308      0.94399389     -1.11375523
H      -0.25346787      1.51456633     -1.43668801
H       0.64304817      1.34835755      1.56245435
H       0.18839061     -1.96804999     -0.02635953
H       1.42249447     -1.48873536      1.23034043
H       2.79057099     -0.33909470     -0.53274063
H       1.56008552     -0.79987027     -1.80272636
