13
b3lypvtz=-211326.91838284
C      -2.34623022      0.80619195     -0.28730453
N      -0.91226364      0.69236888     -0.43283195
C      -0.30055369     -0.20325301      0.21456694
C       1.17145094     -0.34336987      0.08379184
N       1.94336622      0.35061660     -0.62772882
N       1.70346577     -1.44679318      0.91846384
N       2.91912326     -1.63758918      0.87045144
H      -2.80874265      0.69761326     -1.27040948
H      -2.77994285      0.07146723      0.40076324
H      -2.58537799      1.81288588      0.06134814
H      -0.78989460     -0.91153588      0.89059825
H       1.41945063      1.06347968     -1.13673706
H       3.36614883     -0.95208236      0.21878771
