16
b3lypvtz=-204436.54095997
C      -1.43735118     -0.45721554      0.19798068
C      -0.21770923     -1.36848754      0.33374401
C       1.08536750     -0.58279897      0.34434216
N       1.65447912     -0.08982648     -0.92433030
C       1.06649797      0.86716145      0.01520382
C      -0.26141438      1.51126376     -0.31207673
O      -1.22237268      0.56929456     -0.76514417
H      -2.31313454     -1.01282498     -0.13540449
H      -1.67525844      0.00257049      1.16682845
H      -0.19756977     -2.09343601     -0.48505610
H      -0.30556264     -1.94566996      1.25717599
H       1.84201206     -0.94467353      1.03059643
H       0.99099700     -0.26649873     -1.67480658
H       1.78144761      1.53158640      0.48975310
H      -0.63954206      2.03747565      0.57645052
H      -0.15078633      2.24207942     -1.11535677
