13
b3lypvtz=-213776.52801968
C       1.89841411      1.20016874     -0.00004916
C       1.27655329     -0.16595299      0.00000799
O       2.19773752     -1.15400752     -0.00000818
N       0.04792459     -0.47432379      0.00005348
C      -0.93896865      0.58895272      0.00008404
C      -2.29911630      0.03929726     -0.00001978
N      -3.37757282     -0.35830447     -0.00010617
H       1.57980442      1.76222384      0.87964993
H       2.98213401      1.12909319     -0.00008914
H       1.57970305      1.76217270     -0.87974676
H       1.70728431     -1.99016263      0.00001793
H      -0.85097303      1.23893227      0.87915487
H      -0.85089851      1.23904966     -0.87889206
