14
b3lypvtz=-201292.09041528
C       2.11517372      0.26542485     -0.08897878
N       0.76940143     -0.27632144     -0.11704627
C       0.63484467     -1.70827216      0.11715688
C      -0.28084235      0.60119291      0.00711596
N      -0.26408846      1.87589088      0.11280268
C      -1.60634077     -0.00558044     -0.03275316
N      -2.65700305     -0.47345928     -0.05742869
H       2.40667917      0.61150661      0.90967081
H       2.20621042      1.10001975     -0.78548340
H       2.81148677     -0.51027302     -0.40001313
H       1.24767354     -2.25514796     -0.60028525
H      -0.39844635     -2.01677912     -0.01208663
H       0.95442488     -1.98369339      1.12785299
H       0.67990537      2.24936980      0.16245998
