20
b3lypvtz=-182665.56998131
C       2.78313992      0.28397739     -0.23212732
C       1.68562737     -0.69867462      0.18254881
C       0.30685331     -0.27765391     -0.27492187
C      -0.52898218      0.69134225      0.52348565
C      -1.32491866      1.78744081     -0.14343542
C      -0.93502717     -0.76489413      0.42255802
N      -2.07487159     -1.10942179     -0.39282246
H       3.76530869     -0.05139571      0.10572168
H       2.82426431      0.39077518     -1.31826183
H       2.60368271      1.27480648      0.18943672
H       1.91589672     -1.69069927     -0.22024079
H       1.68633064     -0.80670312      1.27131420
H       0.19310523     -0.18456458     -1.35057148
H      -0.10901751      0.96660981      1.48570648
H      -0.68793384      2.64253786     -0.38077938
H      -2.12744531      2.14518187      0.50697213
H      -1.78012177      1.43192221     -1.06614891
H      -0.76241583     -1.35612882      1.32101529
H      -1.97774230     -2.04322562     -0.77338710
H      -2.93018674     -1.09299728      0.15018559
