18
b3lypvtz=-181904.11771288
C      -3.11219804     -0.40505746     -0.35569452
C      -2.31973451      0.28359021      0.46590932
C      -0.88153950      0.50710296      0.30293939
C      -0.02173953     -0.35479995     -0.24323183
C       1.45556797     -0.13521285     -0.42797644
C       2.26465232     -1.08198482      0.46774687
N       1.83749963      1.24745571     -0.13270130
H      -4.16495469     -0.53362425     -0.14356027
H      -2.73875891     -0.84951638     -1.27000588
H      -2.76775865      0.75378505      1.33697672
H      -0.48886710      1.43745461      0.69926775
H      -0.38093544     -1.32391486     -0.57776320
H       1.68118998     -0.41264838     -1.47161538
H       3.33403474     -0.98505938      0.26558196
H       1.98412056     -2.12085158      0.29154694
H       2.08643343     -0.84513079      1.51693358
H       1.41552499      1.88301648     -0.80024646
H       2.84130274      1.35721568     -0.21133426
