11
b3lypvtz=-241306.00018359
N      -2.55856555     -0.60547965      0.83148641
C      -1.67165826     -0.19210948      0.01649468
C      -0.23618337     -0.13035812      0.26931971
C       0.67964047      0.30862218     -0.60399183
F       0.33580818      0.73946600     -1.81887479
C       2.12649063      0.35503068     -0.30733297
O       2.95928907      0.74720390     -1.08326503
H      -2.13929468     -0.90084566      1.71660892
H      -2.00543125      0.14880349     -0.96182796
H       0.12687598     -0.46297226      1.23499357
H       2.38302880     -0.00736109      0.70628930
