15
b3lypvtz=-191178.90968835
C      -3.73094023     -0.29467365      0.48021020
C      -2.59359321     -0.41820468      0.11863508
C      -1.20382413     -0.54538319     -0.30244757
C      -0.26668891      0.46527473      0.40011002
C       1.13948970      0.37434322     -0.10308825
N       2.08314806     -0.02315946      0.64914870
N       3.33903585     -0.16589048      0.11210262
H      -4.73897905     -0.19349237      0.79579073
H      -1.14417948     -0.40962813     -1.38666293
H      -0.85176385     -1.55999338     -0.09892883
H      -0.26956396      0.28485204      1.47435239
H      -0.65762121      1.47270067      0.23183230
H       1.32469211      0.64389045     -1.15127190
H       4.03628923     -0.06545681      0.83346265
H       3.53439905      0.43482104     -0.68524521
