13
b3lypvtz=-237099.00586883
C      -2.70010645     -0.62746418     -0.00009698
N      -2.07861482      0.68772719     -0.00005367
C      -0.81781360      0.77664945     -0.00004390
N       0.08682851     -0.28910532     -0.00006988
C       1.46023383     -0.21788568     -0.00007219
O       2.18164122     -1.18487394     -0.00010303
O       1.90597215      1.05935834     -0.00004311
H      -3.78167792     -0.51054283     -0.00012892
H      -2.43022691     -1.21387970     -0.88716206
H      -2.43028233     -1.21390614      0.88696714
H      -0.34097483      1.74932108     -0.00001215
H      -0.26438096     -1.23315576     -0.00009744
H       2.87090111      1.00459249     -0.00004979
