15
b3lypvtz=-212040.48754940103
C       3.59906772     -0.05282746     -0.15207518
N       2.34836488     -0.48079614      0.12370480
N       1.23406236      0.14012099     -0.09915917
C       0.08429814     -0.46780322      0.25362247
N      -1.06403947      0.22242785      0.00124017
C      -2.34910589     -0.04821960      0.20548986
N      -3.34952607      0.84844681     -0.15423317
H       3.72772469      0.91035396     -0.60979641
H       4.40873349     -0.70865501      0.10516721
H       2.29532528     -1.40217322      0.55771322
H       0.00868449     -1.44674054      0.71433375
H      -0.85191869      1.11695493     -0.42906122
H      -2.63481898     -0.98032568      0.65908012
H      -3.15021400      1.73118513     -0.58283765
H      -4.30663795      0.61805119      0.01458447
