21
b3lypvtz=-195910.51736001
C       3.11089189     -0.53867382     -0.19906762
C       1.91900425      0.35049527      0.15581662
C       0.58238630     -0.38999539      0.07325850
C      -0.64414153      0.43124630      0.50557355
C      -0.91187638      1.63740681     -0.40234350
C      -1.88394117     -0.45405302      0.61576901
O      -2.20162518     -0.98066039     -0.67327504
H       4.05193410      0.01060806     -0.13638495
H       3.02164044     -0.92871714     -1.21543086
H       3.18050583     -1.39471419      0.47600717
H       1.90921272      1.21542790     -0.51176265
H       2.05097877      0.74832012      1.16770114
H       0.64039331     -1.28211840      0.70697438
H       0.42532550     -0.75433440     -0.94530663
H      -0.45718210      0.80247997      1.52091873
H      -1.10558123      1.31410360     -1.42548788
H      -0.06727372      2.32604043     -0.41502194
H      -1.78554258      2.19574863     -0.05893477
H      -2.72213237      0.13796249      1.00435543
H      -1.68948151     -1.26852969      1.32479654
H      -2.98468033     -1.53174915     -0.59780722
