19
b3lypvtz=-192726.42154487
N       1.79535688     -1.11640516      0.27376070
C       0.45674467     -1.33082491     -0.31091393
C      -0.45999999     -0.12454387     -0.17755599
C       0.11073824      1.20043064     -0.67924497
N       1.03848198      1.89623147      0.22005425
C      -1.92763750     -0.39556239     -0.38431913
C      -1.40320352     -0.07276403      0.99232353
H       2.16999335     -1.98334605      0.63568033
H       2.44725421     -0.79968966     -0.43348107
H       0.51876121     -1.60406163     -1.37265920
H      -0.00598615     -2.17764818      0.19955248
H       0.62437704      1.02430306     -1.63092093
H      -0.70890573      1.88560934     -0.90652352
H       0.52182223      2.27745597      1.00456770
H       1.67742951      1.21646341      0.61872341
H      -2.23975296     -1.41293042     -0.58511751
H      -2.51898326      0.35410973     -0.89353881
H      -1.64603814      0.89495791      1.41244596
H      -1.35946805     -0.86961623      1.72319273
