15
b3lypvtz=-191191.95118009
N       3.47708477     -0.05724236      0.00005434
C       2.28834700      0.40024196     -0.00030291
C       1.04531880     -0.36046297      0.00027840
C      -0.15326701      0.22753514     -0.00014839
N      -1.35500414     -0.51032017      0.00042516
C      -2.47655065      0.10304766      0.73740488
C      -2.47652561      0.10183985     -0.73761025
H       3.46857422     -1.08010714      0.00081539
H       2.17802788      1.48769161     -0.00109572
H       1.10276176     -1.44370358      0.00109373
H      -0.22610456      1.31881248     -0.00096453
H      -3.08756912     -0.59906948      1.28877951
H      -2.28934307      1.04518974      1.24076882
H      -3.08752883     -0.60118197     -1.28786253
H      -2.28929942      1.04315423     -1.24250990
