16
b3lypvtz=-181100.5412543
C       1.36637179     -1.24547144      0.38191958
C       0.56335279     -0.04445254     -0.12893622
C       1.23161791      1.22150659      0.18453282
C       1.79346736      2.25187967      0.43110586
N      -0.77854377     -0.06241770      0.47069082
C      -1.81897080      0.65469723     -0.25391310
C      -1.78505960     -0.83092733     -0.25539117
H       2.36583266     -1.25067206     -0.05135298
H       1.45179153     -1.20079155      1.46657879
H       0.86247778     -2.17323049      0.10898208
H       0.49268918     -0.11466512     -1.22779151
H       2.28671985      3.16449367      0.65488203
H      -1.54090362      1.15804872     -1.17429842
H      -2.53253204      1.18922176      0.35955244
H      -2.47287455     -1.40031582      0.35645075
H      -1.48543646     -1.31690359     -1.17921669
