18
b3lypvtz=-233519.6795243
C      -2.85468220     -0.12130605     -0.19937300
O      -1.60278501     -0.08191462      0.45304738
C      -0.60717315      0.59550999     -0.29345119
C       0.71744216      0.52215498      0.46046446
C       1.78076755      1.40371804     -0.20099724
C       1.18922608     -0.91511670      0.61408106
F       1.49193750     -1.46720251     -0.63956198
H      -2.79081160     -0.64414134     -1.16156729
H      -3.54387396     -0.65791640      0.45066461
H      -3.24711746      0.88785897     -0.37827292
H      -0.89595042      1.64577041     -0.43754882
H      -0.50079733      0.13948862     -1.28666980
H       0.53043930      0.88769517      1.47627030
H       2.01845509      1.04511560     -1.20302604
H       2.70409545      1.40019180      0.38069003
H       1.44044260      2.43746581     -0.28022729
H       2.09954832     -0.96663397      1.21548557
H       0.41447207     -1.53577979      1.06296917
