13
b3lypvtz=-213760.48393903
C      -1.93865194     -0.97400622     -0.00833940
C      -0.49881771     -0.58001138      0.00600986
C       0.61397909     -1.34946076      0.00478228
O       1.72894169     -0.60492470      0.00008488
N       1.35649321      0.75059610      0.00918953
C       0.04586174      0.74688034      0.00290839
N      -0.67805281      1.92361440     -0.07668024
H      -2.46150154     -0.63628547      0.89086300
H      -2.45891013     -0.54414041     -0.86734624
H      -2.04754180     -2.05671274     -0.05993029
H       0.75707872     -2.41776100      0.00062899
H      -1.53912874      1.92530135      0.44769742
H      -0.12297178      2.74740850      0.10273582
