11
b3lypvtz=-217972.32978053
C      -2.59867857     -0.53599085     -0.00004742
C      -1.50350433     -0.04352000     -0.00002691
C      -0.21980319      0.60430830     -0.00001334
N      -0.06462919      1.87255544     -0.00000202
C       0.97974181     -0.27424307     -0.00001593
C       2.24046767      0.12712414     -0.00000930
F       0.67681619     -1.58988101     -0.00002612
H      -3.56333781     -0.98044060     -0.00005639
H      -0.96523110      2.34720850     -0.00000213
H       3.04825483     -0.58889740     -0.00001179
H       2.45395868      1.18394155     -0.00000166
