12
b3lypvtz=-223876.6121156
N      -2.31210985     -0.70793810     -0.00000231
C      -1.14906046     -0.20762823      0.00000217
C      -0.68803022      1.25160810      0.00000989
N       0.75343776      1.12053466     -0.00002695
C       1.17839981     -0.18321073     -0.00001031
O       2.31218095     -0.59925400      0.00001710
N       0.01034065     -0.95283420      0.00000361
H      -3.02663902      0.01496368      0.00000050
H      -1.06660880      1.76695177     -0.88662569
H      -1.06656527      1.76692534      0.88668012
H       1.41099600      1.87806792      0.00004161
H       0.02911545     -1.95836421     -0.00000874
