13
b3lypvtz=-216140.83761426
C      -1.22525849     -0.72148711     -0.47475455
C      -0.11949847     -0.57623205      0.56313683
C      -1.15622300      0.51505145      0.36341194
O      -0.51351512      1.66545350     -0.14971746
C       0.81080188      1.32310315     -0.35643183
C       1.11031808      0.09343178      0.06904502
O       2.36445958     -0.45122420      0.12270051
H      -2.03602696     -1.39818171     -0.24226077
H      -0.94866936     -0.66503968     -1.51858074
H      -0.08167860     -1.22246889      1.43100252
H      -1.94274472      0.75377641      1.06349253
H       1.43089552      2.07777635     -0.80802835
H       2.30713966     -1.39395901     -0.06301565
