16
b3lypvtz=-181135.54468657
C      -2.70601993      0.03373885      0.14756080
C      -1.51488399     -0.16101949     -0.40780994
C      -0.24184423     -0.35743415      0.33790814
C       0.77510543     -1.45565903     -0.11897686
C       1.94193640     -0.43479137      0.01871638
C       0.89614317      0.66053229      0.10636053
N       0.97136788      1.89900091     -0.09486415
H      -3.59240357      0.19192400     -0.45253661
H      -2.83737790      0.03755997      1.22337039
H      -1.42957438     -0.15473176     -1.49143708
H      -0.43760316     -0.44017337      1.41070252
H       0.82215990     -2.34799640      0.50103461
H       0.60764384     -1.75121832     -1.15404867
H       2.65407227     -0.35433343     -0.80111247
H       2.49638813     -0.54639613      0.95257339
H       0.04921114      2.33583444     -0.02845698
