18
b3lypvtz=-181904.22905189
C       1.54961983      0.08282142     -0.64020468
C       0.91196853      1.27535035      0.10207619
C      -0.41892565      0.74953190      0.66203948
C      -1.60471533      0.62052527     -0.32375435
N      -1.28005382     -0.81127303     -0.53701856
C      -0.31649966     -0.80801922      0.59819060
C       1.11276141     -1.14345082      0.17904889
H       1.14218526      0.00646193     -1.64907662
H       2.63266810      0.17417403     -0.72753309
H       0.78128183      2.15055277     -0.53725410
H       1.55561262      1.57901805      0.93196356
H      -0.67377436      1.19540508      1.62090066
H      -1.55359058      1.22501255     -1.23381217
H      -2.57202508      0.79992268      0.15562570
H      -2.05907775     -1.44773033     -0.43549519
H      -0.65434917     -1.35498280      1.48159495
H       1.73899378     -1.25082245      1.07069392
H       1.16651004     -2.07634639     -0.38391018
