17
b3lypvtz=-194360.7354817
C       2.89191408     -0.26733740      0.02068705
C       1.58731811     -0.07634676     -0.08317532
C       0.69606095      1.15098518     -0.02792482
C      -0.46746331      0.21489728      0.36230258
O      -1.67076245      0.49326968     -0.30552143
C      -2.73042468     -0.37020182      0.05822768
C       0.38660818     -1.00500440     -0.11010452
H       3.58006533      0.56535518      0.10045526
H       3.31976948     -1.26230170      0.02938716
H       0.51213049      1.57156374     -1.01957358
H       0.96245960      1.95413008      0.65807381
H      -0.62812262      0.18920916      1.44690530
H      -2.94679665     -0.30671415      1.13189564
H      -2.50852790     -1.41438404     -0.19091952
H      -3.61002407     -0.05504766     -0.49997999
H       0.41760215     -1.89717451      0.51480997
H       0.10858032     -1.28574586     -1.12960426
