17
b3lypvtz=-191977.65086013
C      -2.29364573     -0.92176216     -0.25731944
N      -1.31374615     -0.46496764      0.39093442
C      -0.36494974      0.39056960     -0.31750381
C      -0.43148779      1.80581362      0.27372629
C       1.04226102     -0.19093743     -0.20561307
C       1.53112158     -0.57953830      1.16550163
N       1.70585857     -0.28803704     -1.28356742
H      -2.46292291     -0.71656294     -1.32132498
H      -3.02028883     -1.55429962      0.24829696
H      -0.58839198      0.44074100     -1.38906575
H       0.31084008      2.44732978     -0.20166291
H      -0.25541423      1.79240692      1.34908497
H      -1.41973889      2.23291930      0.10109924
H       1.58474475      0.29395809      1.81929488
H       2.52062975     -1.03223030      1.11023688
H       0.83489432     -1.27618266      1.63283925
H       2.63983219     -0.66048022     -1.10451315
