15
b3lypvtz=-214535.30178902
C       2.30255978      1.16688426     -0.01080848
C       1.29422206      0.05967906     -0.00421806
O       1.80840027     -1.21579940      0.04141480
N       0.04606145      0.27371525     -0.03774814
C      -0.87984512     -0.76844078     -0.04525595
C      -2.19528628     -0.48410448     -0.01723889
N      -2.72933252      0.78391067      0.10931028
H       2.96388888      1.08876858     -0.87934691
H       1.79418773      2.12573645     -0.04211155
H       2.93034009      1.12884894      0.88484936
H       2.76936299     -1.17910525      0.06358087
H      -0.55289845     -1.79989599     -0.06596926
H      -2.91622496     -1.29100850     -0.03719141
H      -2.06062899      1.52236663     -0.05483944
H      -3.61980492      0.93700556     -0.33422523
