15
b3lypvtz=-214518.47072364
N      -1.79441769      0.58480950      0.24693754
C      -0.59181504      0.15467466     -0.45824119
C      -0.18765622     -1.33829889     -0.41843401
O       0.91306098     -1.44580215      0.48793009
C       1.67756969     -0.25103446      0.35262357
C       0.64511986      0.83021456      0.15126692
N       0.77875485      2.02933298      0.51615595
H      -2.62815597      0.21647758     -0.19388863
H      -1.78590211      0.26391076      1.20865194
H      -0.69491917      0.48435551     -1.49513860
H       0.11490549     -1.68484604     -1.41580774
H      -0.98696038     -1.98170034     -0.05267761
H       2.35579793     -0.31126299     -0.51208356
H       2.26727652     -0.09936846      1.25325964
H      -0.08255874      2.54863777      0.32944569
