21
b3lypvtz=-172607.17172879
C      -2.42525664     -0.90386235     -0.12991732
C      -1.63759555      0.36552050      0.00624847
C      -0.31251933      0.54310462      0.02177257
C       0.25045970      1.93566085      0.17514499
C       0.69242911     -0.59174966     -0.09613077
C       1.70506240     -0.36731233     -1.23109173
C       1.41917566     -0.84963356      1.23579613
H      -3.09271524     -0.85316262     -0.99529565
H      -3.06601398     -1.05436326      0.74413672
H      -1.80703763     -1.79245374     -0.24043243
H      -2.25276299      1.25616594      0.10930247
H       0.94278329      2.00343250      1.01832200
H      -0.54440760      2.66263206      0.33833733
H       0.80790090      2.24562499     -0.71243762
H       0.14373481     -1.50187927     -0.33930982
H       2.33679248     -1.24923145     -1.35381842
H       2.36254705      0.47909938     -1.02530377
H       1.20186801     -0.17935689     -2.18108688
H       2.02606249      0.00690756      1.53518913
H       0.70953960     -1.05503668      2.03837057
H       2.08750648     -1.70864160      1.14607102
