15
b3lypvtz=-214521.19860145
C      -1.27688318     -0.49123316     -0.55188535
C      -0.39691511      0.75287356     -0.67162906
C       0.93119850      0.28249346     -0.08223784
N       1.97416476      0.99530076     -0.14130168
C       0.67410521     -1.06432391      0.58703807
N      -0.78340080     -1.24145410      0.61919777
O      -0.94508028      1.77322054      0.16656608
H      -2.32944579     -0.23929872     -0.44164690
H      -1.16329324     -1.11261273     -1.44458843
H      -0.27751799      1.11369890     -1.69684666
H       2.75637635      0.56411765      0.35488297
H       1.12871427     -1.85596343     -0.02036908
H       1.11265200     -1.12667449      1.58294528
H      -1.14419795     -0.79190834      1.45288493
H      -0.26047673      2.44176402      0.28698993
