15
b3lypvtz=-193582.83627153
C      -3.05172241      0.82564084      0.08343269
C      -2.39598496     -0.56313048      0.04556813
C      -0.94512070     -0.51475341     -0.09520922
C       0.25116909     -0.45162457     -0.20208286
C       1.68083158     -0.41224068     -0.35133811
C       2.43746353      0.84888632     -0.27493738
O       2.46900440     -0.07574045      0.80721277
H      -2.66850136      1.41174291      0.91856380
H      -2.84957184      1.37563729     -0.83546234
H      -4.13238030      0.73179409      0.19682457
H      -2.64473195     -1.11278512      0.95792566
H      -2.81245783     -1.14577796     -0.78118897
H       2.10728007     -1.21549135     -0.94481945
H       3.36149365      0.94625482     -0.83661800
H       1.89677004      1.76986575     -0.08498230
