16
b3lypvtz=-204447.44268206
C       0.47310148      1.50949238      0.04103580
C      -0.85714603      1.35868267      0.03236169
O      -1.60867385      0.23969765     -0.21427369
C      -1.16379388     -1.02037087      0.27270516
C       0.14835741     -1.51156945     -0.32370195
C       1.37240043     -0.80129669      0.24077664
N       1.48686265      0.57990548     -0.20391907
H       0.82376228      2.52196459      0.19517399
H      -1.47906516      2.23180088      0.17115283
H      -1.97108900     -1.70825653      0.02264772
H      -1.07540336     -0.97626933      1.36705671
H       0.11976338     -1.41274690     -1.41154467
H       0.23753655     -2.57697427     -0.09120522
H       2.27791046     -1.31746859     -0.08193860
H       1.32854912     -0.87134591      1.34072066
H       2.39801052      0.96180291     -0.00817598
