17
b3lypvtz=-215282.88882774
C      -3.37568996     -0.61673385      0.09862638
N      -2.27414615      0.17002219     -0.40971026
C      -1.18354860      0.15161995      0.23410714
N      -0.09558009      0.90982807     -0.10876309
C       1.23869755      0.65028217      0.38924566
C       2.01759973     -0.38397385     -0.43167513
O       3.35104865     -0.54426415      0.03395668
H      -3.71481931     -1.32124608     -0.66527862
H      -3.12881485     -1.18811388      1.00601891
H      -4.22553842      0.03151400      0.32881752
H      -1.02784811     -0.44691035      1.14256775
H      -0.18655022      1.41282632     -0.97825152
H       1.15703392      0.30818944      1.42486306
H       1.80714912      1.58183380      0.41105629
H       2.09930104     -0.04478590     -1.46571113
H       1.47534251     -1.33669977     -0.44263246
H       3.33205220     -0.99391412      0.88415582
