19
b3lypvtz=-221045.68820188
C       1.93497399     -1.41952865     -0.03260691
C       0.43199159     -1.20090274     -0.22547671
C      -0.14635628      0.04288042      0.48110712
C       0.20966037      1.36582714     -0.19432023
F       1.58932341      1.59326285     -0.15821515
N      -1.60491203      0.02503992      0.67659303
C      -2.43839779     -0.22981287     -0.49617018
H       2.24791655     -2.35533703     -0.49885425
H       2.52169553     -0.61195937     -0.46485822
H       2.18768487     -1.47952320      1.02858333
H       0.20356775     -1.15738765     -1.29437340
H      -0.10224174     -2.07356670      0.16347441
H       0.28370025      0.09054906      1.48646881
H      -0.27791633      2.18670124      0.33116641
H      -0.08710468      1.38016598     -1.24546711
H      -1.83063935     -0.64272516      1.40130130
H      -3.48246551     -0.24322963     -0.18275082
H      -2.33392526      0.57986760     -1.21948512
H      -2.23128834     -1.17373722     -1.01765631
