15
b3lypvtz=-214497.68519395
N       2.49573635     -0.58116776      0.08293936
C       1.19508589     -0.04927681     -0.02206619
O       1.18284012      1.32317136     -0.04219094
C       0.07720853     -0.77173651     -0.15400972
N      -1.18698961     -0.29025409     -0.56331670
C      -2.33227046     -0.53422756      0.31200982
C      -1.79634959      0.83888375      0.12832838
H       2.93709171     -0.37324415      0.97242534
H       2.52686451     -1.57523866     -0.09141221
H       2.01167652      1.60567224     -0.44825291
H       0.14191241     -1.84696195     -0.04980797
H      -3.24290243     -0.84202099     -0.18653540
H      -2.14268817     -1.01224423      1.26741831
H      -2.31289642      1.54672795     -0.50732171
H      -1.24843535      1.27636443      0.95284054
