12
b3lypvtz=-226243.93028554
C       0.83817074     -1.21024789      0.04244420
C      -0.48374422     -0.83497891      0.04021878
C      -0.52615139      0.57996056     -0.01900777
C       0.76819117      1.04468637     -0.05201619
N       1.58822421     -0.05876748     -0.01388168
O      -1.72562878      1.25011037     -0.03487269
O      -1.56310358     -1.67175045      0.08661354
H       1.28419347     -2.18703554      0.07906280
H       1.15845127      2.04592607     -0.09835963
H       2.58924438     -0.02822004     -0.02547478
H      -1.57025928      2.19740095     -0.07592800
H      -2.35758801     -1.12708401      0.07120142
