12
b3lypvtz=-179615.38109227
C      -3.52097255     -0.16988325      0.00012048
C      -2.05057761     -0.40947003     -0.00003484
C      -1.12175482      0.55641574      0.00024454
C       0.26796282      0.30953921      0.00010547
C       1.46470879      0.13117154     -0.00000141
C       2.81136844     -0.08016067     -0.00012562
N       3.95516196     -0.25954838     -0.00023132
H      -3.98637705     -0.63170225      0.87535697
H      -3.76153133      0.89271819      0.00046290
H      -3.98647325     -0.63116107     -0.87534961
H      -1.72182899     -1.44326945     -0.00039625
H      -1.42377041      1.59949941      0.00060870
