13
b3lypvtz=-190410.1699767
C       3.34035623     -0.76064199     -0.21511854
C       2.41039623     -0.01324292     -0.09746340
C       1.26537909      0.88024941      0.05408496
C       0.01380930      0.14609441      0.44932030
N      -1.06268320      0.32083191     -0.20098633
N      -2.13167181     -0.43314420      0.33258379
C      -3.21197119     -0.24619563     -0.30573051
H       4.16594141     -1.41842729     -0.32524867
H       1.49389231      1.62195008      0.82878384
H       1.07492370      1.42842224     -0.86974660
H       0.05314023     -0.52872665      1.30481760
H      -3.27496419      0.42501268     -1.16148807
H      -4.09519312     -0.78135007      0.02368763
