16
b3lypvtz=-204480.03780827
C      -3.12949449      0.20056778      0.55960949
C      -2.15511291     -0.39439512     -0.46724269
C      -0.77514806      0.16391986     -0.33763296
C       0.33232936     -0.53732200     -0.10982841
C       1.65777037      0.13209635      0.00605256
N       2.70233537     -0.71731665      0.24567066
O       1.81741506      1.33743424     -0.08947412
H      -4.13522582     -0.19555254      0.41361477
H      -3.18028775      1.28695026      0.46920692
H      -2.81620241     -0.03411170      1.57768047
H      -2.13124449     -1.48267610     -0.37596759
H      -2.52879948     -0.17070408     -1.47265308
H      -0.66490662      1.24134921     -0.42803349
H       0.29091495     -1.61720961     -0.00541116
H       2.59109590     -1.71440509      0.24614057
H       3.63011802     -0.33152581      0.27637507
