19
b3lypvtz=-192748.92643169
N       2.12485047     -0.35016196      0.13872761
C       0.70810869     -0.48311790      0.47938571
C      -0.16077417     -1.36102941     -0.45271678
C      -1.60422255     -0.81692772     -0.33146226
C      -1.49705618      0.46235786      0.53846980
C      -0.02309454      0.87309403      0.49985688
N       0.27963413      1.59791418     -0.74152853
H       2.62974003     -1.19471562      0.37713804
H       2.22343166     -0.22961823     -0.86347023
H       0.66266368     -0.88351319      1.49616197
H      -0.08275935     -2.41877620     -0.19651328
H       0.20020725     -1.24753279     -1.47573254
H      -2.28060055     -1.54173268      0.12251714
H      -2.00720233     -0.58298117     -1.31592706
H      -1.77438753      0.24305233      1.57198778
H      -2.15799747      1.26134405      0.19780531
H       0.25764116      1.44063539      1.39564926
H      -0.30158377      2.42437914     -0.81517366
H       1.24072038      1.92017489     -0.71516717
