14
b3lypvtz=-201264.98973692
C      -1.49419096     -0.59730469     -0.17346382
C       0.01287325     -0.95146953     -0.26532609
N       0.66794924      0.36707763     -0.28951926
C      -0.27132945      1.39305131     -0.22664407
C      -1.51282530      0.91620005     -0.15990115
N       1.96621301      0.58983159     -0.36000916
N       2.66365782     -0.46015482     -0.40922462
H      -2.05183119     -1.00249895     -1.02078436
H      -1.94838254     -1.01631007      0.72732079
H       0.38269849     -1.52379498      0.58550383
H       0.28013260     -1.50480208     -1.16575476
H       0.08289369      2.41090828     -0.23781044
H      -2.40736506      1.51381255     -0.10340100
H       3.62950641     -0.13454630     -0.46010815
