18
b3lypvtz=-181859.89127814
C       0.67719133      0.29140432     -0.20283591
C       0.81976265     -0.83144930     -1.20738820
C      -0.25902933     -1.92775714     -1.45106536
C      -1.03467406     -0.81760823     -2.19730181
N       0.40596703     -0.56746740     -2.67668465
C       0.46109835     -2.09847510     -2.80763689
C      -0.77332447     -2.98181218     -0.50476065
H       0.99149985     -0.05632177      0.78374116
H      -0.33555886      0.67996857     -0.11003852
H       1.32992418      1.12074989     -0.48296628
H       1.84329640     -1.21487710     -1.17157446
H      -1.47055788      0.00164300     -1.63112416
H      -1.70408979     -1.12557060     -3.00123752
H      -0.11789341     -2.47956027     -3.64911600
H       1.47509321     -2.50104797     -2.80469867
H      -1.22483744     -2.52888384      0.38085008
H      -1.53193088     -3.60439689     -0.98435493
H       0.03506314     -3.63643799     -0.17110725
