14
b3lypvtz=-229599.25510655
C       2.49247865     -0.98218421      0.00070891
N       1.05298660     -0.83546323     -0.04954452
C       0.56173557      0.34368113     -0.02531868
N       1.29356758      1.52112380     -0.01168463
C      -0.90042842      0.54993575     -0.06225963
C      -1.75738116     -0.45362439      0.04439105
F      -3.08376360     -0.24900608      0.00841730
H       2.93657180     -0.53092702      0.90119818
H       2.74699883     -2.04065589      0.01231877
H       2.98851342     -0.53195376     -0.86969657
H       2.26389738      1.46371760      0.24584127
H       0.82974558      2.35754526      0.29916989
H      -1.28391965      1.55592065     -0.17924542
H      -1.48471758     -1.49212860      0.16157108
