11
b3lypvtz=-215380.50289628
C       2.58560246     -1.00256772      0.16119858
C       1.51093220     -0.48092595      0.02955953
C       0.26760658      0.18856585     -0.15332820
O       0.32731797      1.42324932     -0.72509399
C      -0.91259843     -0.35537439      0.21311929
C      -2.20286979      0.30130962      0.03938648
O      -3.25476499     -0.20528140      0.37468070
H       3.52629754     -1.48008747      0.28607873
H       1.24494396      1.64403667     -0.91718874
H      -0.91246562     -1.33700268      0.66343577
H      -2.18010189      1.30397815     -0.42194815
