14
b3lypvtz=-227034.1410245
C       2.47327522      0.66668658     -0.23013960
C       1.22271881     -0.13075996      0.04433421
O       1.20230818     -1.33860892     -0.07708411
C       0.00943398      0.66433313      0.50378082
C      -1.38026550      0.21053172      0.03715366
N      -1.57969687     -1.12846994     -0.00120251
O      -2.23689554      1.03568608     -0.21764914
H       3.31026489     -0.00060579     -0.41864819
H       2.69887324      1.32907762      0.60858118
H       2.31043225      1.30726648     -1.10092731
H       0.10450757      1.71547006      0.24123250
H       0.01238324      0.61370010      1.59921719
H      -2.45542551     -1.45446039     -0.37478741
H      -0.77926195     -1.74363876      0.02679970
