15
b3lypvtz=-214528.16294632
C      -2.71989618     -0.11324433     -0.01921209
N      -1.36768381     -0.62686790      0.05152386
C      -0.26910410      0.16056097      0.02283451
O      -0.28255869      1.37483036     -0.05991896
N       0.92031058     -0.65288625      0.10480524
C       2.02568076     -0.17930202     -0.75995334
C       2.08341060      0.04106888      0.69318904
H      -3.28658195     -0.36981938      0.87813557
H      -3.24635104     -0.50790106     -0.89059258
H      -2.66238366      0.96881817     -0.10199486
H      -1.20093935     -1.61466169      0.13757188
H       1.81783662      0.68581711     -1.37616653
H       2.59716144     -0.97342447     -1.22127668
H       1.91366601      1.05167085      1.04046598
H       2.69999978     -0.58993825      1.31902795
