16
b3lypvtz=-204456.63881458
C      -2.91599253     -0.25700051      0.36088544
C      -1.49914217     -0.60783862      0.02573477
C      -0.58385006      0.24209047     -0.42469039
C       0.82730123     -0.13110575     -0.77903388
N       1.78577682      0.73129451     -0.09663681
C       2.63572904      0.19992428      0.65929793
O       3.56024636      0.91143916      1.33745518
H      -3.14413644     -0.49320042      1.40404057
H      -3.11445059      0.80314366      0.20099804
H      -3.61962194     -0.83015389     -0.24953914
H      -1.21870032     -1.64928201      0.16735110
H      -0.83710098      1.28965805     -0.56081930
H       0.99545055     -1.19577811     -0.56748307
H       0.97484442      0.01104870     -1.85550237
H       2.74054529     -0.86762480      0.86313068
H       3.41310132      1.84338529      1.11746671
