16
b3lypvtz=-181108.83167102
C       3.04093453     -1.36739411      0.43559402
C       2.24505133     -0.47656347      0.32113657
C       1.25427327      0.58157237      0.16081531
C      -0.04419462      0.08597538     -0.47672913
C      -1.22927501      1.07172768     -0.60873083
C      -2.11472645     -0.09840320     -0.12540599
N      -0.89356093     -0.76068065      0.39090908
H       3.75167807     -2.14745362      0.54583376
H       1.67413043      1.38154924     -0.45793340
H       1.01816102      1.01360626      1.13672503
H       0.18645840     -0.38071630     -1.44229782
H      -1.17440104      1.88081971      0.11880873
H      -1.42907575      1.48274962     -1.59529348
H      -2.59265257     -0.62245364     -0.96079758
H      -2.86898858      0.11511983      0.63323025
H      -0.82381210     -1.75945511      0.24254678
