15
b3lypvtz=-240206.06350048
O       2.55614059      0.60715467      0.05593753
C       1.57972490     -0.35569840      0.44311533
C       0.25611014     -0.19066758     -0.25844153
C      -0.65110503      0.97640210      0.05779471
O      -1.38670838      1.57842416     -0.96285150
C      -1.04329489     -0.40043509      0.49581534
O      -2.16383142     -0.91425100     -0.17899945
H       2.63354781      0.59796161     -0.90302549
H       1.95945903     -1.37431648      0.29188504
H       1.45469016     -0.21789323      1.51856915
H       0.22389100     -0.49674855     -1.29988910
H      -0.31558049      1.68598054      0.80337016
H      -2.12004897      0.98353377     -1.16916109
H      -0.99417563     -0.65688346      1.54929097
H      -1.98891883     -1.82246306     -0.44341008
