18
b3lypvtz=-205219.74898186
C       2.41548767     -0.53377386     -0.58447069
C       1.41764294     -0.43160341      0.57881072
C       0.18603398      0.36634052      0.24914075
N       0.42348772      1.74348814      0.05742645
C      -1.03217655     -0.15125656      0.03513703
C      -1.45322345     -1.58314978      0.05387727
O      -2.03750150      0.74550009     -0.34259387
H       2.69528666      0.45595677     -0.94397494
H       1.97790325     -1.07878405     -1.42223565
H       3.32253952     -1.05653671     -0.27527203
H       1.14435158     -1.42930853      0.91747817
H       1.91660936      0.04585900      1.43121715
H      -0.43245029      2.27493076     -0.01589040
H       1.03523197      2.14129645      0.75739541
H      -0.65189085     -2.24960313      0.36148639
H      -2.28857942     -1.73522226      0.74929717
H      -1.79784805     -1.90507519     -0.93434871
H      -2.88872255      0.39394975     -0.06495123
