17
b3lypvtz=-240991.73280278
C       1.96645326     -1.03254780     -0.07047097
O       0.64387191     -0.76064303     -0.51401037
C       0.00614926      0.39638376      0.03849407
C       0.70805984      1.68774362     -0.34713902
O      -0.02982618      0.32944622      1.44502982
C      -1.41778150      0.30791735     -0.51918991
O      -2.06485305     -0.85974509     -0.02892723
H       2.68876516     -0.32875576     -0.49425707
H       2.03397885     -1.00554498      1.01826801
H       2.21047240     -2.03314671     -0.42239406
H       0.84008286      1.74059406     -1.42742208
H       0.12012858      2.54270371     -0.01521196
H       1.68364503      1.75067142      0.13240951
H      -0.71636734     -0.31557530      1.66789983
H      -1.99983061      1.15839973     -0.16767250
H      -1.38720226      0.32114125     -1.61238761
H      -1.54462222     -1.61021846     -0.34108846
