15
b3lypvtz=-214471.72630046
C      -0.83205303      1.79035598      0.06487850
C      -0.80222971      0.45595015      0.02861056
C       0.41825567     -0.41703343      0.04859647
N       1.64678855      0.34657491     -0.10606780
C       2.84871381     -0.46079646      0.06760548
N      -2.10672154     -0.14804379     -0.01592412
O      -2.10328589     -1.36215778      0.00981629
H      -1.78878635      2.29384170      0.04284883
H       0.07431800      2.37340772      0.13233324
H       0.29083982     -1.21106600     -0.70263334
H       0.45219367     -0.94093822      1.00935203
H       1.66038629      0.77821901     -1.02272156
H       2.88808865     -1.35100852     -0.57817301
H       2.91426770     -0.79894903      1.10337680
H       3.72775935      0.14977876     -0.13765337
