16
b3lypvtz=-204429.71465464
C      -1.68510012      1.28831455     -0.79684083
C      -0.84570962      0.54668791      0.20699308
C      -1.02452374     -0.89669367      0.50316364
N       0.10114634     -0.44675159     -0.32035224
C       1.43059414     -0.47973557      0.17042435
C       2.45926158     -0.57161547     -0.66520201
O       1.65375754     -0.33634634      1.52280825
H      -2.57719406      1.70341072     -0.32263379
H      -1.99607267      0.62369793     -1.60253277
H      -1.12178969      2.11359220     -1.23618307
H      -0.48260330      1.13938021      1.04146692
H      -0.85294796     -1.23149047      1.52308853
H      -1.76325958     -1.48370156     -0.02877826
H       3.47101945     -0.58721125     -0.29035282
H       2.28022935     -0.61215894     -1.72678367
H       0.95329234     -0.76937865      2.02171469
