17
b3lypvtz=-215281.06498401
C      -1.87360649     -1.21171241      0.13845708
N      -1.09071150     -0.00313944     -0.12185248
C      -1.92131112      1.19766496     -0.04458158
C       0.09852859      0.08155434      0.67169069
C       1.28117910      0.00629661      0.03411888
N       2.53630350     -0.03430179      0.61340580
O       1.34184301     -0.09942457     -1.31403697
H      -2.70622832     -1.27462549     -0.56545267
H      -1.24246105     -2.08955098      0.01102182
H      -2.28802250     -1.23105131      1.15871173
H      -2.75369094      1.12050256     -0.74729183
H      -1.32560921      2.07113084     -0.30460524
H      -2.34012558      1.35468627      0.96212185
H       0.03381122      0.17262630      1.75335910
H       2.56598354      0.30298244      1.56242207
H       3.25465765      0.37668399      0.03576108
H       0.40381310     -0.10103634     -1.58552934
