18
b3lypvtz=-181887.56445222
C       2.97326182     -0.73498443     -0.20995606
C       2.06365390      0.01486571      0.01599393
C       0.95614217      0.92965745      0.27157378
C      -0.41240606      0.44971432     -0.26283459
C      -1.45005182      1.56665051     -0.14492002
C      -0.86795221     -0.82692067      0.45384107
N      -2.06853923     -1.38777107     -0.17823621
H       3.78103872     -1.39493608     -0.40466703
H       0.87822834      1.10876361      1.34948753
H       1.19225643      1.89767544     -0.17902645
H      -0.28099838      0.20599661     -1.32280108
H      -1.54392389      1.90045492      0.89242636
H      -2.42551585      1.21081929     -0.47128735
H      -1.17405122      2.43226886     -0.75004530
H      -0.02944055     -1.53219612      0.49367382
H      -1.12324114     -0.57635589      1.48810140
H      -2.45929320     -2.12464432      0.39596618
H      -1.82842881     -1.81317312     -1.06671898
