15
b3lypvtz=-193521.07287973
C      -0.84882962      0.07280613     -1.13209530
C      -0.79859009      1.26126977     -0.16185453
C      -1.25038192      0.24295482      0.99820079
C      -0.11856370     -0.40732911      0.15692816
O       1.02096616     -1.28125688      0.06043614
C       1.75895616     -0.07026896     -0.41523461
C       0.68093905      0.86543364      0.22166510
H      -0.25531666      0.15498785     -2.03886603
H      -1.82785753     -0.36007367     -1.32801850
H      -1.22348411      2.25178538     -0.31336730
H      -2.26549065     -0.14736884      0.91714234
H      -0.99304708      0.53067858      2.01551146
H       2.73261501     -0.00973912      0.06531061
H       1.86525015     -0.09081793     -1.49793214
H       0.98243483      1.17493832      1.22017379
