14
b3lypvtz=-203665.78064899
C       3.09531402     -0.82150636     -0.44924349
C       1.91266317     -1.01436347     -0.41786658
C       0.47289468     -1.26337324     -0.36798854
C      -0.35321435     -0.01091657     -0.27634636
O      -0.28115298      0.77109472     -1.37810998
C      -1.11305560      0.31948113      0.77289549
N      -1.85189590      1.54953434      0.69719150
H       4.14093394     -0.64397324     -0.48185553
H       0.17466485     -1.81101941     -1.26808295
H       0.24115135     -1.90058251      0.48762783
H      -0.85835733      1.53160806     -1.18040246
H      -1.15865802     -0.31643564      1.64923595
H      -2.84959406      1.40343240      0.79728008
H      -1.57139378      2.20711978      1.41566504
