17
b3lypvtz=-220274.26409255
F       2.76519967     -0.75249716      0.09171539
C       2.24034775      0.47193226     -0.34595831
C       0.90181237      0.71301107      0.30812729
N      -0.06965913     -0.28542391     -0.11720321
C      -1.36619486     -0.14180168      0.48490775
C      -2.53562681     -0.75802035     -0.22396334
C      -2.36793454      0.74039110     -0.20900004
H       2.95740027      1.25007285     -0.07905140
H       2.14029019      0.41060040     -1.43063804
H       0.54715690      1.70203376      0.00339853
H       1.04076145      0.74468347      1.40073788
H       0.30041301     -1.21140711      0.06358478
H      -1.40786851     -0.14139964      1.57500945
H      -3.32334486     -1.19666947      0.37222306
H      -2.32460622     -1.26919757     -1.15240266
H      -3.04216152      1.32991476      0.39640251
H      -2.04708615      1.20884321     -1.12869963
