16
b3lypvtz=-227764.28424739
C      -2.76451832      0.09086931      0.39550712
C      -1.55515696     -0.68366673     -0.12306284
C      -0.24205569      0.04906127      0.10110573
O      -0.17403445      1.29257602     -0.54795018
O       0.79461636     -0.83431278     -0.33823470
C       2.08766274     -0.54908959      0.00199522
N       2.58699414      0.46950295      0.54424597
H      -3.68580324     -0.45713991      0.19792574
H      -2.84234964      1.06859551     -0.07942381
H      -2.69886904      0.25023316      1.47361150
H      -1.48361623     -1.65703224      0.36526397
H      -1.65268392     -0.88176910     -1.19521028
H      -0.08951860      0.27378130      1.15991705
H      -0.33558664      1.15768535     -1.48954370
H       2.71192857     -1.39339999     -0.27824825
H       1.90923992      1.21061947      0.70727946
