15
b3lypvtz=-216912.06386358
O      -0.78112347      1.60548916     -1.68620665
C      -1.24118136      1.09335621     -0.69992541
C      -1.07280186     -0.37815183     -0.32530139
O      -2.02664635     -0.72637368      0.67467860
C       0.33443737     -0.75437426      0.09364483
C       1.20260673      0.18278041      0.90397282
C       1.56702845     -0.15299539     -0.51617401
H      -1.86525619      1.66663694      0.01811235
H      -1.34830494     -0.95544497     -1.21227337
H      -1.64584422     -0.52820856      1.53718792
H       0.39816602     -1.80361217      0.35588399
H       1.79583661     -0.23637976      1.70443445
H       0.83934944      1.18337180      1.10051000
H       1.43612629      0.61516286     -1.26413496
H       2.40770747     -0.81125675     -0.68440920
