15
b3lypvtz=-216899.14063227386
C       2.13590667      0.37333837      0.68238017
O       1.34618642     -0.01565626     -0.42883024
C       0.09177543     -0.54412048     -0.07333896
C      -0.77587401     -0.96193603     -1.30254152
C      -1.81717883      0.01716801     -0.77746417
C      -1.04058672      0.41186206      0.23685344
O      -1.10926694      1.28964309      1.26198996
H       3.09205457      0.71393613      0.28916745
H       1.67048844      1.18553046      1.24856616
H       2.31070718     -0.47174825      1.36000135
H       0.21111095     -1.33976919      0.67412456
H      -1.05923552     -2.01621668     -1.33162071
H      -0.30006536     -0.68546965     -2.24338133
H      -2.81744219      0.26321517     -1.10402223
H      -1.93858009      1.78022325      1.21449147
