11
b3lypvtz=-210596.86452358
N       2.26953421      0.16995167      0.00162408
C       0.99937586      0.10656709     -0.00007605
N       0.22684483      1.27197129     -0.00115139
C      -1.05536432      1.15543688      0.00011657
C      -1.74139368     -0.10790498      0.00176293
N      -1.07078488     -1.21633175      0.00036472
N       0.25433005     -1.09659112     -0.00176092
H       0.74847260     -1.97557776     -0.00241620
H       2.70104357     -0.75212010      0.00261410
H      -1.63917207      2.07304871     -0.00056892
H      -2.81914518     -0.18295592      0.00338107
