15
b3lypvtz=-191212.06647319
C       0.18453284      1.74148486      0.09183660
C       0.11308764      0.21419813      0.00920154
C       1.47192064     -0.34503753     -0.03487726
N       2.54007892     -0.77318992     -0.04632422
C      -0.84208370     -0.43742490      1.05913158
C      -1.86061390     -0.57573425     -0.09316661
N      -0.76577221     -0.32385128     -1.06052657
H       0.67003853      2.15059246     -0.79543613
H       0.75506104      2.05916274      0.96552415
H      -0.82146637      2.15678419      0.16415851
H      -0.47541745     -1.39211733      1.42557582
H      -1.11428764      0.19836722      1.89787499
H      -2.33620925     -1.54902155     -0.21200534
H      -2.63696810      0.19447447     -0.07200936
H      -0.96237097      0.32167069     -1.81573370
