14
b3lypvtz=-201304.45318022
N       1.48659375      1.46699053      0.07434771
C       0.44259069      0.76181305     -0.02283106
C      -1.01812117      1.15238895     -0.13260344
C      -1.77859244     -0.15233535      0.17123407
N      -0.79065900     -1.18298012     -0.12094677
C       0.51093909     -0.74412586     -0.03591631
N       1.53424006     -1.49469664      0.01572761
H       1.27332263      2.46452520      0.08273303
H      -1.21850602      1.48224019     -1.15458732
H      -1.28169302      1.96746053      0.53975641
H      -2.09980964     -0.17655260      1.21879880
H      -2.66438143     -0.27178708     -0.45270588
H      -0.98227438     -2.15477512      0.05848652
H       2.36750887     -0.90880066      0.04077565
