18
b3lypvtz=-205215.91671248
C       2.97862446     -0.50480637     -0.27039908
C       1.55417321     -0.77201339      0.12191755
C       0.59980857      0.16007472      0.25467843
N       0.79517916      1.51618852     -0.03598357
C      -0.81677073     -0.18274685      0.63387338
C      -1.81244139     -0.02262730     -0.52252927
O      -3.15842621     -0.24799966     -0.11538351
H       3.11306156     -0.44189587     -1.35613231
H       3.63720851     -1.29774762      0.08634487
H       3.35522057      0.43308390      0.15146552
H       1.27006910     -1.80243590      0.28959796
H       1.75673037      1.80663426     -0.12297770
H       0.26641335      2.15312789      0.54142957
H      -1.15303837      0.45638036      1.45815723
H      -0.84815597     -1.21182933      0.99711894
H      -1.52950345     -0.68928261     -1.34482515
H      -1.78578931      0.99633004     -0.90570246
H      -3.25012943     -1.17074980      0.14077361
