18
b3lypvtz=-205218.5610374
C      -2.88333728      0.00014999     -0.18528578
N      -1.52468029     -0.00003839      0.31699926
C      -0.55575294      0.00012701     -0.48752960
C       0.86989253     -0.00005900      0.02513766
C       1.58699076     -1.26410725     -0.47234177
C       1.58719704      1.26401677     -0.47195538
O       0.86798235     -0.00026170      1.44314001
H      -2.94180795      0.00037927     -1.28068702
H      -3.40745306      0.87740234      0.19818191
H      -3.40756684     -0.87719086      0.19782205
H      -0.68983297      0.00041524     -1.57736938
H       1.62333497     -1.30623781     -1.56285752
H       2.60879882     -1.26834783     -0.09242123
H       1.08044688     -2.15498566     -0.10096324
H       2.60898595      1.26800087     -0.09198139
H       1.08076674      2.15487168     -0.10036160
H       1.62360522      1.30643101     -1.56245752
H      -0.06705292     -0.00040266      1.70663855
