15
b3lypvtz=-170209.269180084
C       0.85713573     -0.73084351     -1.30283873
C       0.19870294      0.70996289     -1.42678090
C       0.14110649      0.64487965      0.09887797
C       1.21950775     -0.40254152      0.19724176
C       0.40480439     -0.72393093      1.46624040
C      -0.87083184     -0.22676403      0.85296236
C      -0.11608687      0.76095286      1.59817486
H       1.69897370     -0.92935199     -1.96433342
H       0.11640517     -1.52048513     -1.41239184
H       0.91217604      1.44730822     -1.79757255
H      -0.73538071      0.79754112     -1.98016284
H       2.24690171     -0.05960610      0.33249957
H       0.52475961     -1.40792343      2.29915893
H      -1.90541109     -0.49928577      0.75370838
H      -0.33526303      1.45138768      2.39331604
