16
b3lypvtz=-204436.45266939
C      -1.62653569     -0.02238220     -1.30977782
C      -0.82978445     -0.31724180     -0.05815915
C      -1.42022165     -0.02444081      1.25359414
O      -1.42929755     -1.36331466      0.76020586
C       0.64114350     -0.39768209     -0.23746188
C       1.52949702      0.34155018      0.43308598
N       2.91064928      0.24353717      0.35460771
H      -2.69606776     -0.06418355     -1.10515978
H      -1.39870355     -0.75880251     -2.08365948
H      -1.37668768      0.96429238     -1.70408078
H      -0.78351659      0.14402933      2.11639928
H      -2.39146315      0.46112374      1.30266472
H       0.98734531     -1.10882263     -0.98315628
H       1.18943644      1.06789422      1.16228155
H       3.27280391     -0.25634008     -0.44279331
H       3.42140260      1.09078332      0.54140925
