14
b3lypvtz=-227011.74428894
C      -2.50754399     -0.52923726      0.13616835
C      -1.41269964     -0.06729105     -0.44997513
C      -0.21798124      0.47408566      0.29093227
N       0.02467206      1.85834430     -0.09794975
C       1.06139085     -0.32001111      0.03557193
O       2.15238788      0.17013369     -0.10508611
O       0.85234307     -1.65134357      0.04307567
H      -3.35252513     -0.88236199     -0.43957052
H      -2.59727260     -0.57706984      1.21532156
H      -1.34479431     -0.01022160     -1.53085813
H      -0.40164381      0.33845749      1.36942336
H       0.97620660      2.12429003      0.12547517
H      -0.61662657      2.48005373      0.37516174
H       1.71804382     -2.07058650     -0.07398740
