12
b3lypvtz=-249525.6346461278
C      -0.27714508     -0.51681793     -0.28230911
C       0.67568169      0.56300999      0.27134080
O       0.18020966      1.48774420      0.87493745
C       2.17121376      0.23370333     -0.07383068
O       2.19451771     -0.84187851     -0.72099295
O       3.02129256      1.02341730      0.31566528
N      -1.68243015     -0.07111167      0.12275476
H      -0.08255359     -1.49338644      0.14890907
H      -0.23080607     -0.58680165     -1.36419215
H      -1.70995201      0.04246450      1.13814956
H      -2.41299003     -0.70863672     -0.18574953
H      -1.84703844      0.86829358     -0.24468249
