19
b3lypvtz=-195140.40251783
C      -1.77443280     -1.50332253     -0.25028036
C      -0.64436220     -0.74822470      0.42631252
C      -0.88100017      0.71626917      0.88502941
C       0.55621871      1.03774428      0.45411319
O       0.71737837      2.30663599     -0.15398840
C       0.54586577     -0.23301373     -0.43368995
C       1.80297564     -1.07157012     -0.57295118
H      -1.43384884     -2.46608452     -0.63917968
H      -2.18112278     -0.93044058     -1.08669335
H      -2.59277659     -1.70151678      0.44599963
H      -0.25635140     -1.33745683      1.26226399
H      -1.16129534      0.90252780      1.92093328
H      -1.58506037      1.22676736      0.22559406
H       1.25577501      0.91796395      1.29034512
H       1.65360322      2.46240723     -0.31094161
H       0.16785592      0.06000611     -1.41767672
H       2.20147699     -1.34884421      0.40623195
H       2.58640788     -0.53098386     -1.11076539
H       1.61001201     -1.99469904     -1.12437952
