15
b3lypvtz=-216917.54829011
O       1.97023269      1.08525102     -1.36069188
C       1.95450953      0.49839670     -0.30793939
C       0.90609133     -0.48362183      0.12997664
C      -0.26579322     -0.69608925     -0.85493276
C      -1.09982477      0.31358476     -0.02475884
O      -2.42547483     -0.02577964      0.32624106
C      -0.10747070      0.16004566      1.14055114
H       2.74942784      0.68181857      0.44685091
H       1.41253542     -1.37354072      0.50856276
H      -0.68562017     -1.69738524     -0.76850524
H      -0.07168863     -0.45376544     -1.89756869
H      -1.05295602      1.31523256     -0.46136017
H      -3.01008621      0.19334451     -0.40575103
H       0.19812062      1.05933985      1.67466877
H      -0.47200289     -0.57663154      1.85455672
