16
b3lypvtz=-227759.28937238
N       2.18033993      0.97182183     -0.00073725
C       1.98996813     -0.48097277      0.10639739
C       0.63395652     -0.92483528     -0.43342394
C      -0.59962026     -0.48280913      0.38113614
O      -1.70270669     -1.28933020      0.04295890
C      -0.95323962      0.97987211      0.19101103
O      -2.03721559      1.31048256     -0.23331185
H       3.03618427      1.25478461      0.46143490
H       2.27543558      1.24247715     -0.97367677
H       2.76879424     -1.05624717     -0.41122413
H       2.05961756     -0.74612981      1.16459723
H       0.51427860     -0.60569675     -1.47355245
H       0.60132717     -2.01566527     -0.44473023
H      -0.35983108     -0.60478038      1.45008404
H      -2.40862895     -0.67867961     -0.22350233
H      -0.17542981      1.71056910      0.45452831
