20
b3lypvtz=-182681.97587765
C      -2.47208664      0.02197271      0.08398379
C      -1.00413046      0.02042817     -0.33841520
C      -0.26001338      1.27017141      0.15306742
C       1.22932586      1.22115189     -0.20330367
C       1.86180584     -0.08790886      0.28505630
N       1.15234407     -1.28989925     -0.15374205
C      -0.27568457     -1.24132884      0.15683283
H      -2.99801428     -0.85646319     -0.29664931
H      -2.99143042      0.90771413     -0.28764614
H      -2.56489132      0.01750002      1.17325686
H      -0.96137730      0.01374499     -1.43535989
H      -0.36784798      1.33733047      1.24256447
H      -0.72429343      2.17052874     -0.25835373
H       1.34896746      1.29399339     -1.28993913
H       1.75508376      2.07731844      0.22889199
H       2.90096708     -0.16205931     -0.04111781
H       1.87539676     -0.09394141      1.38083470
H       1.27932529     -1.41404257     -1.15205106
H      -0.74893993     -2.13709879     -0.25241447
H      -0.38126442     -1.30258015      1.24704408
