19
b3lypvtz=-192732.4009446
C      -0.58417453      2.03619567      0.12099537
C       0.11169353      0.81375118     -0.43175398
C       0.95943340     -0.08516452      0.43976947
N       2.21945847     -0.55027828     -0.08915056
C      -0.31457566     -0.62567601     -0.16808264
C      -1.48939160     -0.92274046      0.73546757
N      -0.15167809     -1.62301142     -1.20406553
H      -1.46170666      2.29881761     -0.47483734
H       0.08470675      2.90088578      0.11760797
H      -0.91843742      1.88938305      1.14796584
H       0.52228280      0.94793658     -1.42709008
H       0.90829246      0.12182901      1.50812092
H       2.91836334      0.18232004     -0.07126407
H       2.57776290     -1.33027456      0.44878042
H      -1.39997527     -1.93532544      1.13131733
H      -2.43103851     -0.86518993      0.18235714
H      -1.55480223     -0.22768997      1.57222779
H       0.79441064     -1.57350505     -1.56627850
H      -0.79072432     -1.45236327     -1.97228712
