13
b3lypvtz=-190459.86139144
C       3.45762462      0.02507098      0.00000055
C       2.05234003     -0.46726321      0.00000146
C       0.96675043      0.31438250     -0.00000068
N      -0.30066875     -0.24756665      0.00000066
C      -1.31296849      0.53015678     -0.00000130
C      -2.64297157      0.00112157      0.00000012
N      -3.73549943     -0.36752409      0.00000117
H       3.99789906     -0.34667252      0.87514153
H       3.51066656      1.11350786     -0.00000420
H       3.99790073     -0.34668031     -0.87513605
H       1.88908960     -1.53953375      0.00000429
H       1.05706100      1.40253641     -0.00000354
H      -1.23854980      1.62150243     -0.00000401
