16
b3lypvtz=-181113.4687715
C      -0.89217058     -1.24887441     -1.14607457
C      -0.47932517     -0.23555264     -0.12460504
C      -1.41991881      0.39114580      0.84021681
N      -0.84631156      1.25823192     -0.19280854
C       0.54474155      1.57539982      0.30570712
C       0.92030768      0.10701367      0.25529099
C       2.05626773     -0.57206436      0.28174968
H      -0.81368612     -2.26014981     -0.73916803
H      -0.25869179     -1.18989523     -2.03252158
H      -1.92698772     -1.08779896     -1.44931251
H      -2.47248122      0.18506452      0.68996541
H      -1.12904403      0.53875606      1.87539887
H       1.07941547      2.18511817     -0.42136257
H       0.55508879      2.07674335      1.27617893
H       2.08498973     -1.63373781      0.07093266
H       2.99780605     -0.08940008      0.51041237
