13
b3lypvtz=-211388.64101163
N      -2.38052368     -0.59422748      0.05808395
C      -1.17509826     -0.20901450     -0.02987465
N      -0.00301777     -1.00218176     -0.03733682
C       1.00048334     -0.19877108      0.00775141
N       2.29340562     -0.59188203     -0.01944275
C       0.61530511      1.26560590      0.05299441
N      -0.80912181      1.13829490     -0.14073513
H      -2.40697850     -1.60830737      0.10885064
H       2.48804384     -1.57454674      0.07256966
H       3.02486270      0.05213879      0.21936268
H       0.89737227      1.70972883      1.01700814
H       1.10949375      1.83903765     -0.73781091
H      -1.44613460      1.82145790      0.23178738
