19
b3lypvtz=-192725.35568238
C       2.55660255     -0.16848516      0.00438565
N       1.21459237      0.36334312      0.01134365
C       0.27375261     -0.08951407      1.05227304
C      -0.87488616     -0.00747815     -0.00569029
C      -1.89422033     -1.13085764     -0.01602266
N      -1.56632083      1.27615753     -0.08252710
C       0.27497133     -0.05917930     -1.04495557
H       2.58181131     -1.27256550     -0.01101823
H       3.09613903      0.19484713     -0.87241882
H       3.09577534      0.17026194      0.89113134
H       0.20022848      0.55958210      1.92885967
H       0.46357342     -1.12256037      1.38143252
H      -1.41105666     -2.10779215     -0.00158343
H      -2.54773749     -1.06851608      0.85893186
H      -2.52241406     -1.06191532     -0.90520757
H      -2.18103049      1.39497429      0.71581083
H      -0.89207939      2.03333716     -0.05344809
H       0.19785109      0.61462701     -1.90077215
H       0.45989289     -1.08292054     -1.40211966
