12
b3lypvtz=-223851.02775114
C      -1.42084830      0.01915860     -0.05083893
N      -0.52854317     -0.02600895     -0.98087535
C       0.78741207     -0.06644508     -0.59853489
N       1.21149960     -0.54806555      0.51652581
C       2.57311351     -0.42443939      0.79216341
O       3.28004276      0.51229190      0.49805136
N      -2.72873448     -0.06369615     -0.32311948
H      -1.16810388      0.14184521      1.00312289
H       1.48300276      0.30103982     -1.35366451
H       2.95821818     -1.27730355      1.37458406
H      -3.02883123     -0.18747808     -1.27622679
H      -3.41822782      0.03197629      0.39881242
