15
b3lypvtz=-237824.21387403
C       2.75033202     -0.69383040     -0.06747547
C       1.86028320      0.50059645     -0.39943201
N       0.66666877      0.64772430      0.45124084
N      -0.18395187     -0.52970374      0.34334335
C      -1.36311608     -0.14606990      0.03377538
O      -2.34050079     -1.04193913     -0.13359909
O      -1.74496168      1.12216506     -0.14975947
H       3.59672752     -0.74223140     -0.75537218
H       3.14976019     -0.61413865      0.94668480
H       2.18811239     -1.62308756     -0.14006930
H       1.51309139      0.43891977     -1.43198723
H       2.42058317      1.43441657     -0.30421552
H       0.97511595      0.66638993      1.41966009
H      -3.14677682     -0.56458375     -0.36369061
H      -0.89428835      1.60577946      0.00970841
