10
b3lypvtz=-243910.46161342
C      -0.78412738      1.31968797      0.07665967
O      -0.39802880      2.43179572      0.29529106
N       0.06526150      0.18413580      0.03630047
N      -0.35873868     -1.10835613     -0.21450610
N      -1.57666647     -1.21718081     -0.40815969
N       1.41411435      0.41265116      0.26755662
N       2.12437672     -0.59521712      0.22609569
H      -1.82205539      1.03835483     -0.11689856
H      -1.73542051     -2.21477867     -0.57734938
H       3.07128466     -0.25109275      0.41501020
