14
b3lypvtz=-226958.23472377
C       2.88596586     -0.09918465      0.04980866
C       1.78977946     -0.16066461      0.79249822
C       0.43629631      0.24702505      0.31571312
O      -0.47307663     -0.84562612      0.57291289
C      -1.75996583     -0.64227335      0.26349838
N      -2.18473312      0.44076147     -0.24385376
O      -3.58308795      0.36172626     -0.45866001
H       2.85467963      0.22718476     -0.98300218
H       3.85556722     -0.36704205      0.44767680
H       1.84487493     -0.49713411      1.82262323
H       0.07110160      1.12806887      0.85135908
H       0.43241079      0.48060417     -0.75034848
H      -2.39173868     -1.49576291      0.48892889
H      -3.77807359      1.22231719     -0.84036078
