17
b3lypvtz=-194350.05522652
C       2.03575388     -0.27095388     -0.13106997
C       0.62210618     -0.77010277     -0.31466751
C      -0.23629688     -0.93050776      0.90242743
C      -0.53535796      0.18816971     -0.07155425
C      -1.83146092     -0.57877861     -0.32190698
O      -1.43928645     -1.64195215      0.59448395
C      -0.44706627      1.68351055     -0.00218209
H       2.72143435     -1.11031843     -0.00194609
H       2.13186009      0.36584521      0.74999970
H       2.37529272      0.30748959     -0.99310046
H       0.49682919     -1.52094877     -1.09037381
H       0.12495550     -0.94828460      1.92303046
H      -2.01705882     -0.95016859     -1.33350847
H      -2.71862836     -0.06391061      0.05526248
H       0.51691768      2.01922550      0.37861320
H      -1.22170197      2.09376383      0.64962309
H      -0.57829192      2.12792178     -0.99313069
