13
b3lypvtz=-237101.54891372
C       3.15385284      0.24161823     -0.00033882
N       1.89890840     -0.48413063      0.00005337
C       0.68856769      0.08059014     -0.00012345
N      -0.39857036     -0.61504388      0.00015280
C      -1.57857573      0.14471344     -0.00017260
O      -1.68901557      1.34605587     -0.00087503
O      -2.66813208     -0.65485215      0.00002648
H       3.74524060      0.00621994     -0.88705429
H       2.94673543      1.30977116     -0.00079056
H       3.74535829      0.00698807      0.88650177
H       1.92042149     -1.49293968      0.00041027
H       0.66866184      1.17178851     -0.00052391
H      -2.34486884     -1.56541603      0.00044898
