14
b3lypvtz=-229607.01967033
C      -1.46660980     -0.00717920     -0.64427727
C      -1.42229000      0.43206242      0.84017019
N       0.00981115      0.55809084      1.17050204
C       0.63972839     -0.01866119      0.22288442
N      -0.11575627     -0.56831536     -0.80050365
C       2.12368024     -0.20462124      0.22327996
F       2.62181095     -0.08438113     -1.07862159
H      -1.62071742      0.84591966     -1.31320329
H      -2.23430932     -0.75171989     -0.84863559
H      -1.87068272     -0.32509518      1.49053663
H      -1.94288047      1.37116052      1.02357992
H       0.30142602     -0.59481049     -1.71821743
H       2.38657210     -1.20257527      0.58043959
H       2.59021716      0.55012549      0.85206602
