16
b3lypvtz=-204453.4331134
C      -0.92095951      1.46132421     -0.70739583
C      -0.80832974      0.33108412      0.32105329
C      -1.54247476     -0.93859303     -0.12277526
N       0.59642284      0.05126053      0.66462044
C       1.39304657     -0.36963282     -0.22336287
C       2.80481048     -0.64085021      0.16141235
O       3.63390434     -1.04437213     -0.61674633
H      -0.37653427      2.34466864     -0.37261042
H      -0.52146754      1.15947176     -1.67701623
H      -1.96729731      1.73708128     -0.84482502
H      -1.26631640      0.67577968      1.24962766
H      -2.60627301     -0.73054306     -0.24424044
H      -1.16013025     -1.30800508     -1.07576967
H      -1.43228810     -1.72897350      0.62009418
H       1.14490286     -0.55987353     -1.27322961
H       3.02878380     -0.43982686      1.22566375
