15
b3lypvtz=-216897.97744934
C      -1.93893317      0.67534175     -0.39315831
C      -0.51709984      0.33597735     -0.10194382
C       0.05565788     -0.52359850      1.02996574
C       1.28039142     -0.84611531      0.09318572
O       2.56892117     -0.48275349      0.51397930
C       0.62699499      0.03267802     -0.97907976
O       0.49071267      1.33527436     -0.37645381
H      -2.02165901      1.19274118     -1.34861279
H      -2.34526161      1.32603823      0.38463894
H      -2.55045367     -0.22796250     -0.42752511
H      -0.53912388     -1.40728592      1.26059325
H       0.28952826      0.01498008      1.94812319
H       1.31799536     -1.89917182     -0.18162064
H       2.56290313      0.47518045      0.63438907
H       0.71952630     -0.00132388     -2.05668097
