16
b3lypvtz=-181119.53251478
C       2.55836826     -0.55060321      0.31230590
C       1.42155336     -0.55989470     -0.37816370
C       0.31578162      0.40378766     -0.23148621
C       0.48987445      1.70032004      0.05474346
N      -0.94412855     -0.15366265     -0.53626339
C      -1.57686129     -1.10642665      0.36814359
C      -2.14299456      0.25881680      0.15896832
H       3.32901545     -1.28710916      0.12905977
H       2.75388942      0.18582095      1.08127216
H       1.24722054     -1.34360691     -1.10853822
H       1.48195582      2.11530683      0.14469262
H      -0.34679973      2.37710441      0.15193571
H      -1.09158002     -1.29623536      1.31907646
H      -2.03584858     -1.96825191     -0.09953969
H      -3.02329897      0.39515459     -0.45686383
H      -2.03684721      0.96483629      0.97531306
