14
b3lypvtz=-201281.45640128
N      -1.91561782     -0.53727007      0.02100785
C      -0.60285302     -0.34347826     -0.52215567
C       0.15762986      0.94419899     -0.22862667
C      -0.36658035      1.86345782      0.73066723
N      -0.80412166      2.57093421      1.53018258
C       0.66852172     -0.43981631      0.25396019
N       1.82161707     -1.07505262     -0.29848557
H      -2.04889702     -1.48976347      0.33664572
H      -2.10523447      0.08546274      0.79637752
H      -0.52339574     -0.65183138     -1.56108876
H       0.68491101      1.39804551     -1.05691585
H       0.55234517     -0.59375384      1.31967287
H       1.79854409     -1.10344947     -1.30949879
H       2.68333116     -0.62748386     -0.01164266
