14
b3lypvtz=-224553.4979254582
C       0.47337502     -0.20981064      1.27510871
C       1.65888328      0.11817205      0.40386803
N       0.97292263      0.30805849     -0.69148191
O       1.19179434      0.63804709     -1.87278708
C      -0.38801375      0.00147499     -0.01330631
N      -1.07858624     -1.15676197     -0.47222911
N      -1.17685184      1.19690202     -0.08922019
H       0.24563504      0.51053223      2.06006096
H       0.43738946     -1.22145348      1.68318695
H       2.72561024      0.22420890      0.52889025
H      -1.36317605     -1.04731404     -1.43939704
H      -0.52628959     -2.00108554     -0.38607455
H      -1.01128394      1.66172623     -0.97606551
H      -2.16140859      0.97730366     -0.01055318
