15
b3lypvtz=-191212.26406337
C       1.14420577     -1.82965237      0.29726758
N       1.23531008     -0.81615364     -0.44995893
C       0.73691404      0.43261914     -0.06866312
C       1.80593342      1.47624166      0.07565161
C      -0.57765404      0.71041540      0.05748489
C      -1.68174004     -0.21467761     -0.15023067
N      -2.92361033      0.02461939      0.02326418
H       0.69451943     -1.79953195      1.29404452
H       1.52911503     -2.78341364     -0.05490196
H       1.37844738      2.45147434      0.29866006
H       2.50038802      1.20475135      0.87514216
H       2.39086566      1.54262981     -0.84382929
H      -0.85026609      1.73646096      0.28083100
H      -1.42565708     -1.21191756     -0.50774580
H      -3.06097424      0.98184273      0.35811278
