16
b3lypvtz=-204438.77724686
C      -1.25192255      1.87465939      0.21653440
C      -0.21668162      1.24018374     -0.34878705
C       0.15382828     -0.16130323     -0.23444785
C      -0.66826096     -1.20741112     -0.02257825
N      -2.03500120     -1.17111423      0.20772865
O       1.48598602     -0.46268489     -0.51084192
C       2.40515411     -0.04823734      0.49272149
H      -1.91309503      1.39961695      0.92876268
H      -1.43532357      2.92031083      0.01096739
H       0.44812470      1.81275367     -0.99070274
H      -0.22660613     -2.19549777     -0.02220723
H      -2.52843471     -1.99460197     -0.10107709
H      -2.49643411     -0.32056587     -0.08539628
H       2.35702047      1.03137130      0.66664763
H       3.40028965     -0.30710813      0.13448796
H       2.21343265     -0.56443433      1.43943320
