15
b3lypvtz=-216867.49842313
C      -1.85728101     -0.43629229     -0.35315333
C      -1.06545629      0.75898481      0.21774331
C       0.14226749     -0.17972888      0.48307576
C      -0.43031120     -0.44701800     -0.93830283
O      -0.54182240      1.01987687     -1.15212398
C       1.52624766      0.41301799      0.63428834
O       2.54801736     -0.57296165      0.47207096
H      -2.13845523     -1.23770408      0.32936537
H      -2.64176692     -0.17369631     -1.05812492
H      -1.41812898      1.61511339      0.78832699
H      -0.03020508     -0.97761292      1.20728203
H      -0.02476268     -1.04226084     -1.75394918
H       1.65028354      0.79659973      1.64858463
H       1.65937534      1.24396609     -0.06114757
H       2.62199839     -0.78028390     -0.46393556
