12
b3lypvtz=-202936.75795722
N       2.71243810     -0.26775182     -0.00000050
C       1.71194931      0.51692968     -0.00001765
C       0.28226587      0.19643417     -0.00002503
C      -0.32630610     -1.02579116      0.00000787
O      -1.67203017     -0.89120975      0.00000202
C      -1.94181733      0.44692700     -0.00004448
C      -0.79076545      1.15496491      0.00003431
H       2.42169872     -1.24750065      0.00001160
H       1.93188399      1.58661507      0.00000181
H       0.04414630     -2.03537368      0.00001938
H      -2.98236312      0.71596598     -0.00006874
H      -0.69510713      2.22765026      0.00007940
