16
b3lypvtz=-181121.75486468
C      -3.80003855     -0.36558059     -0.03756676
C      -2.64949255     -0.02651690     -0.10535019
C      -1.30277164      0.42804411     -0.25273484
N      -0.36175339      0.02126730      0.49445303
C       0.96967762      0.54183278      0.25273531
C       1.95586115     -0.59223941     -0.03881374
C       3.39078411     -0.09119587     -0.19131435
H      -4.81130913     -0.67903519      0.04110710
H      -1.13780510      1.15740332     -1.05682113
H       0.98626512      1.27793283     -0.56549082
H       1.28707410      1.05642644      1.16545846
H       1.64018057     -1.10830822     -0.94926693
H       1.89129067     -1.32281710      0.76994396
H       3.47822456      0.62975052     -1.00716937
H       4.07272830     -0.91504069     -0.40490637
H       3.73824816      0.39826968      0.72113165
