13
b3lypvtz=-213761.09882928
N      -2.77473786     -0.00390822     -0.07401418
C      -1.56850956     -0.08769090     -0.43996117
C      -0.33468545     -0.03193052      0.43135806
C       0.58161195      1.17895128      0.10005319
O       1.87519596      0.57901727     -0.17498711
C       1.67026545     -0.75690175     -0.11134251
N       0.53151931     -1.20937981      0.19862353
H      -2.84498583      0.08921078      0.94249771
H      -1.36571329     -0.20303890     -1.50814415
H      -0.64726041     -0.02757452      1.47863282
H       0.69557730      1.87558670      0.92747343
H       0.26689420      1.72297717     -0.79096624
H       2.54198723     -1.35802959     -0.33432938
