17
b3lypvtz=-215271.96952284
N       3.49617196      0.08205626     -0.12649400
C       2.10205632     -0.04299892      0.07006965
C       1.17930348      0.60282046     -0.64652916
O      -0.17142363      0.64136715     -0.43438472
C      -0.69222575     -0.13977605      0.63465201
C      -2.19701378      0.02696885      0.63839376
N      -2.77892828     -0.56910283     -0.56449020
H       3.96924221     -0.81200152     -0.13475830
H       3.73047272      0.58504282     -0.97215635
H       1.83169831     -0.65550829      0.91860413
H       1.44740872      1.21815252     -1.49687393
H      -0.43232276     -1.19340395      0.48463355
H      -0.26384530      0.19978412      1.58519543
H      -2.42519948      1.09440420      0.76706737
H      -2.59103107     -0.49734022      1.51240329
H      -2.42010339     -0.09129865     -1.38298168
H      -3.78436029     -0.44896596     -0.57025085
