13
b3lypvtz=-213727.99658757
C       2.22332978     -0.59845345     -0.62107532
C       0.95101151     -0.83301160     -0.31057498
C      -0.09564779      0.19138957     -0.14736842
N       0.24020471      1.43006266     -0.23790679
O      -0.82386550      2.31800926     -0.07639840
C      -1.48473141     -0.25200030      0.11759276
N      -1.76242311     -1.48942785      0.20630540
H       2.59688881      0.40353349     -0.78401758
H       2.92531595     -1.41501105     -0.71993402
H       0.59860759     -1.84424012     -0.16080038
H      -0.39285198      3.17362853     -0.16620581
H      -2.22056070      0.54128731      0.22825436
H      -2.75527786     -1.62576646      0.39211894
