14
b3lypvtz=-180322.67754862
C       2.24366404      0.28835436     -0.10184862
C       0.93977683      0.07248326     -0.04521243
C      -0.25653399      0.93573251      0.30474157
N      -0.91868457      0.13400685      1.40574503
C      -1.25203920     -0.83067439      0.33158298
C       0.00489244     -0.96745065     -0.53892498
C      -1.05955499      0.11686973     -0.79930777
H       2.66832077      1.22626137      0.23084423
H       2.92553207     -0.45826859     -0.48740157
H      -0.18523901      2.01016939      0.43087201
H      -1.78460158      0.61520119      1.64206322
H      -1.94289160     -1.65146585      0.45643543
H       0.20421261     -1.85438870     -1.12056545
H      -1.58695381      0.36316952     -1.70892364
