15
b3lypvtz=-191096.85147299
C       1.74697792     -0.05310379     -0.38626457
C       0.59116242      0.81491808      0.23502666
C      -0.16697582     -0.45143756      0.23619551
N       1.04850358     -1.34177742      0.10869878
C      -0.85006914      0.00030299     -1.06618299
N      -0.87815537      1.27728123     -0.22169151
C      -1.32760197      0.33076034      0.94046666
H       2.71864944      0.12825975      0.07054655
H       1.85380060     -0.07497813     -1.46631627
H       0.86677142      1.28888253      1.17521329
H       1.42058344     -1.57395931      1.02716249
H      -0.25194013      0.08790027     -1.96938482
H      -1.84062192     -0.39433247     -1.28740932
H      -2.35896499     -0.00130914      0.82207891
H      -1.12921949      0.72879260      1.93386064
