15
b3lypvtz=-216892.75147514
C      -1.82750193     -0.42053669     -0.23418593
C      -0.72246983     -0.64213225      0.85494232
C       0.26679594      0.08272219     -0.06887037
C      -0.77126389      0.27397657     -1.09699573
O       0.28985163     -0.66803916     -1.30483559
C       1.50679199      0.84240816      0.26455485
O       2.56332616     -0.01636025      0.68148857
H      -2.61688568      0.25061723      0.10177541
H      -2.26816844     -1.31102770     -0.68017954
H      -0.45831480     -1.67085677      1.09224905
H      -0.92687977     -0.09525707      1.77457118
H      -0.89594489      1.04421694     -1.84641976
H       1.32084913      1.51666104      1.10192131
H       1.80069842      1.44574745     -0.60180564
H       2.73911598     -0.63213969     -0.03821016
