11
b3lypvtz=-210595.13026937
N      -2.45772347     -0.39751489     -0.00008522
N      -1.64508058      0.54807441     -0.00006932
C      -0.29378995      0.18599599     -0.00001461
C       0.70983821      1.12697195     -0.00000235
N       1.87199542      0.40940943      0.00001591
H       2.80424716      0.78620942      0.00003513
C       1.52694956     -0.91841419      0.00000775
N       0.23488287     -1.08583725     -0.00001977
H      -3.39166998      0.03473098     -0.00004970
H       0.67525846      2.20100409     -0.00000766
H       2.26802430     -1.70156294      0.00002183
