14
b3lypvtz=-226955.68284355
O       2.72321445      0.90896592     -1.26304033
N       1.57844793      1.08135405     -0.47215592
C       0.81934824      0.06470725     -0.49311734
C      -0.42534989      0.09288940      0.29128829
O      -0.65503534      1.27448744      1.00234819
C      -0.90830126     -1.18775209      0.93200727
C      -1.64351272     -0.61738743     -0.25193493
H       3.19145386      1.74228420     -1.14986066
H       1.06570826     -0.82235551     -1.07337910
H       0.09424550      1.85766376      0.81927696
H      -0.32742176     -2.09058148      0.80163798
H      -1.35702023     -1.06530687      1.90737721
H      -2.58161749     -0.11483461     -0.06458841
H      -1.57415956     -1.12413403     -1.20475921
