16
b3lypvtz=-204447.0906618
C      -2.16369590      0.46352246     -0.54715274
C      -1.63809716     -0.64336892      0.33178699
C      -0.86941364      0.64039162      0.19654909
C       0.43779004      0.66880650     -0.56184917
N       1.55919569      0.34359470      0.30568023
C       2.27103824     -0.65168979      0.02492814
O       3.32476381     -1.03540114      0.77540299
H      -3.02867168      1.01895918     -0.21224523
H      -2.11823529      0.32050439     -1.61891081
H      -2.14663533     -0.84462555      1.26427177
H      -1.23745398     -1.52400485     -0.15374067
H      -0.89022403      1.30273145      1.05298056
H       0.60140062      1.67652394     -0.95554878
H       0.37271274     -0.00870376     -1.42629359
H       2.14266093     -1.31516003     -0.83307296
H       3.38286491     -0.41208022      1.51480817
