18
b3lypvtz=-181897.88727799
C       0.85180346     -1.23536512     -0.18654589
N       1.61328592     -0.00000077      0.05540076
C       0.85180475      1.23536388     -0.18654841
C      -0.66023589      1.05609120      0.03799393
C      -0.90052877      0.00000165      1.15179903
C      -0.66023699     -1.05609041      0.03799607
C      -1.19106114     -0.00000034     -0.96459215
H       1.01705216     -1.57860629     -1.21420090
H       1.25134968     -2.00922052      0.47224297
H       1.93730077      0.00000003      1.01079477
H       1.01705379      1.57860277     -1.21420412
H       1.25135178      2.00922020      0.47223887
H      -1.17258645      2.01670424      0.09806563
H      -1.93539364      0.00000253      1.49197373
H      -0.23742219      0.00000218      2.01905499
H      -1.17258855     -2.01670279      0.09806970
H      -0.76967526     -0.00000158     -1.97274898
H      -2.27945944      0.00000016     -1.02768202
