17
b3lypvtz=-191988.70684287
C      -3.19662099     -0.30900484     -0.01538958
C      -1.70847780     -0.40951490     -0.12323526
C      -0.85385447      0.57059963      0.16771331
C       0.62117819      0.51424761      0.03693269
N       1.36637632      1.55044668     -0.10502685
N       1.18611400     -0.73968221      0.02882310
C       2.62976220     -0.88819704     -0.00835341
H      -3.67069576     -0.48277301     -0.98541135
H      -3.51027131      0.66941889      0.34845662
H      -3.59247304     -1.06964571      0.66348380
H      -1.32003717     -1.35429537     -0.49206171
H      -1.23848420      1.53074581      0.49715956
H       0.79729912      2.39102307     -0.14565230
H       0.67732104     -1.44786673      0.52897416
H       3.12052778     -0.43624101      0.85898128
H       3.02540973     -0.39915425     -0.89655551
H       2.87121534     -1.94950762     -0.04824658
