16
b3lypvtz=-181165.25847125
C      -1.40000306     -0.10975168     -1.29730881
C      -0.49523178     -0.08586921     -0.09786630
C       0.82293219      0.17979721     -0.19453287
C       1.82937691      0.23523385      0.93129508
C       1.39638971      0.45303022     -1.47936277
N       1.91179033      0.68164294     -2.48650388
C      -1.19436058     -0.37851407      1.19809710
H      -2.20626305      0.61918406     -1.17574113
H      -1.87836508     -1.08894855     -1.38943385
H      -0.87857567      0.10665540     -2.22616647
H       2.64599591     -0.46561794      0.74718614
H       1.38824747     -0.00372594      1.89412604
H       2.27353941      1.23064491      0.99734952
H      -1.98618024      0.35672731      1.36812478
H      -0.54220978     -0.37715055      2.06585551
H      -1.68708269     -1.35333796      1.14488190
