18
b3lypvtz=-205213.68665676
C       2.42064509      0.04416091      0.10248325
C       0.96718237      0.02571812     -0.34781505
C       0.23661512     -1.23464429      0.12406093
O      -1.13631637     -1.21908861     -0.24508976
C      -1.81402654     -0.08307368      0.27645515
C      -1.15244064      1.20842968     -0.19337179
N       0.28248319      1.24739557      0.09764878
H       2.96599072     -0.81618856     -0.28828543
H       2.49330531      0.01683536      1.19340201
H       2.91172047      0.95274183     -0.24523409
H       0.93136260      0.03181252     -1.44286515
H       0.66212925     -2.13272070     -0.32664141
H       0.32782326     -1.32178820      1.21896001
H      -1.81565352     -0.12446875      1.37693022
H      -2.84593150     -0.15462640     -0.07032991
H      -1.28155802      1.29984235     -1.27572304
H      -1.63383545      2.07357158      0.26792315
H       0.42478166      1.36390927      1.09677410
