19
b3lypvtz=-218440.0674734
C       2.93125802     -0.70579086     -0.04553452
O       1.80780069      0.02806179      0.38511048
C       0.94356412      0.39716258     -0.67797051
C      -0.22297978      1.19917887     -0.12568582
C      -1.07730054      0.46267181      0.91330243
C      -1.79971577     -0.76657487      0.38717373
O      -2.65690727     -0.36849105     -0.68537483
H       3.54715672     -0.12778166     -0.74684361
H       2.63901717     -1.64299835     -0.53715900
H       3.52710499     -0.94086686      0.83506879
H       1.49383040      1.00023957     -1.41354837
H       0.59159409     -0.50318845     -1.20090578
H       0.17208437      2.11204331      0.32647064
H      -0.85177398      1.50224228     -0.96497268
H      -1.82477153      1.15544512      1.30783778
H      -0.44903677      0.15597999      1.75195031
H      -1.07875336     -1.51781654      0.04423707
H      -2.38247666     -1.21755960      1.19872819
H      -3.10620492     -1.14617909     -1.02675931
