13
b3lypvtz=-190415.56676525
C      -2.72521993      1.25504056      0.00000819
C      -2.14912544      0.19546751      0.00000743
C      -1.45151913     -1.03323772     -0.00000169
C      -0.10440891     -1.11934663     -0.00000372
N       0.74340023     -0.04908370      0.00000409
N       2.07753809     -0.23319470     -0.00000620
C       2.83236669      0.79368706     -0.00000569
H      -3.25250697      2.17573742      0.00002318
H      -2.02285986     -1.95042356     -0.00000733
H       0.40342857     -2.07250010     -0.00001094
H       0.35549230      0.88956598      0.00000652
H       2.45511461      1.81803330      0.00000220
H       3.90039975      0.63042658     -0.00001303
