14
b3lypvtz=-203694.76354201
C       2.34501803     -0.75887007     -0.00089427
C       1.02566165     -0.93198324      0.00089226
N       0.00578836      0.03998856      0.00021669
C      -1.35484647     -0.33228449     -0.00019474
C      -1.86398635     -1.56017176     -0.00060162
C       0.29430039      1.39947222      0.00029080
O      -0.53499993      2.27767536     -0.00014229
H       2.97527626     -1.63520871      0.00035781
H       2.84561209      0.19679187     -0.00354566
H       0.63493895     -1.93673404      0.00325280
H      -1.99320809      0.53791150     -0.00013790
H      -1.28265085     -2.46983205     -0.00088554
H      -2.93765861     -1.67221921     -0.00070058
H       1.36955060      1.60619109      0.00211825
