14
b3lypvtz=-203636.72577435
N       2.61113415      0.08661684     -0.72270288
C       1.75985127     -0.17921053      0.17388801
C       0.29160940     -0.03203873      0.03502777
C      -0.82574956     -1.11651180      0.02891533
C      -1.42734203      0.23661966     -0.39512068
C      -0.68969735      0.93193499      0.76461270
O      -0.23402652      0.46806415     -1.26011568
H       2.13586116      0.42105324     -1.56575399
H       2.10811563     -0.54981108      1.14103472
H      -0.73578499     -1.85849622     -0.76019112
H      -1.13176322     -1.53544640      0.98660181
H      -2.39765712      0.45739646     -0.83020614
H      -0.48019362      1.98878193      0.62141531
H      -0.98455721      0.68114750      1.78269483
