11
b3lypvtz=-213013.82251443
O       0.93667904     -0.02219423      0.22739055
C       2.15721362      0.02905845      0.12371096
C       2.93993993      1.24676340      0.02180774
C       4.28695250      1.16399316     -0.08861121
N       4.91301378     -0.04056016     -0.10517663
H       5.91256037     -0.11039827     -0.18661915
N       4.28137565     -1.22102679     -0.01680843
C       2.99095538     -1.18681481      0.09022831
H       2.44039295      2.20403422      0.03506523
H       4.93642547      2.02548968     -0.16883730
H       2.49309132     -2.14614466      0.16074992
