14
b3lypvtz=-226995.71041787
C      -2.84964820     -0.30639343     -0.00000592
O      -1.50320461     -0.75744998     -0.00000258
C      -0.51359001      0.18925068     -0.00000017
N      -0.65729730      1.45266675      0.00000090
C       0.79215380     -0.47439495     -0.00000108
C       1.92645661      0.22546043     -0.00000094
O       3.14151902     -0.37591930     -0.00000024
H      -3.07215802      0.28549508      0.89171436
H      -3.46574044     -1.20155923     -0.00001158
H      -3.07215078      0.28550131     -0.89172386
H      -1.62656659      1.75027222      0.00000139
H       0.80677442     -1.55474768     -0.00000243
H       1.90743820      1.30918092      0.00000056
H       3.83284090      0.29149019     -0.00000140
