13
b3lypvtz=-213762.21349946
C       0.31329479     -0.10118775     -0.68983415
C       1.52186453     -0.40293327      0.15322240
N       2.54140395      0.34572714      0.10486545
C      -0.89398783      0.29672517      0.17119760
C      -2.04952411      0.65433512     -0.67419642
N      -2.96566120      0.93057252     -1.31280033
O      -1.20290788     -0.79775667      1.02235201
H       0.55454848      0.71197788     -1.37300660
H       0.03423013     -0.98289470     -1.27157461
H       1.44880416     -1.28728644      0.79203610
H       3.27386552      0.00986337      0.73051913
H      -0.63224984      1.18577820      0.75611525
H      -1.94368069     -0.56292056      1.59110418
