12
b3lypvtz=-252145.70820419
C      -1.96408185      0.30996421      0.62945131
N      -0.52975414      0.17003359      0.45582098
C      -0.11207885     -0.36537105     -0.59542461
O       1.20112339     -0.57213757     -0.91342738
C       2.22815174     -0.20151862     -0.08605314
N       2.26345525      0.34714976      1.02564538
F       3.33705605     -0.55952083     -0.72522544
H      -2.54671536     -0.08302156     -0.21199230
H      -2.26597679     -0.20972948      1.53946208
H      -2.20625324      1.36492243      0.76278106
H      -0.72651105     -0.74593252     -1.41222985
H       1.32158487      0.54516164      1.35457930
