15
b3lypvtz=-191212.74127177
C       0.64917713      1.70298663      0.15186947
C       0.31026921      0.41067129      0.11892283
C       1.35452517     -0.64042296      0.24277750
N       2.52217110     -0.63454014     -0.25492245
C      -1.13058803      0.00016103     -0.00567228
C      -1.44050189     -1.47916032      0.00345649
N      -2.01121932      0.91013061     -0.12826507
H       1.67836248      2.00979359      0.28230131
H      -0.10937699      2.46811590      0.06977487
H       1.08953397     -1.51389965      0.84054931
H       2.66769439      0.20333417     -0.82376920
H      -0.85570034     -2.01199449     -0.74934073
H      -1.19759296     -1.92704081      0.96982956
H      -2.49817805     -1.64664476     -0.19364463
H      -2.94312087      0.50852090     -0.21958198
