16
b3lypvtz=-204455.94677203
C       2.17393909     -0.86910554     -0.07284866
C       0.75852337     -0.40988893      0.10612071
C      -0.26931594     -1.24079060     -0.16172592
C      -1.69185923     -0.93168339     -0.02540420
O      -2.17989058      0.16948853      0.15052761
C       0.58738659      1.02141820      0.58555764
N       0.18895681      1.97889284     -0.45007617
H       2.24169156     -1.88224558     -0.46593225
H       2.70830829     -0.82612140      0.88113115
H       2.70893215     -0.19554488     -0.74957508
H      -0.05359495     -2.25212277     -0.49119431
H      -2.35644148     -1.81533010     -0.10487663
H      -0.16963285      1.05835782      1.36776516
H       1.52895057      1.36111274      1.02247079
H       0.79281584      1.91177416     -1.26102176
H      -0.75646322      1.76227689     -0.74455610
