11
b3lypvtz=-233883.6384077
N       2.86648322     -0.28171873      0.27363394
N       1.64931813     -0.21287992     -0.19776656
N       0.76778881     -0.06410740      0.69768732
C      -0.50006416     -0.00300736      0.12913124
N      -1.52408671      0.11368499      0.87282590
C      -2.77283005      0.27724802      0.27510934
O      -3.03251419      1.06278827     -0.60427511
H       3.03174275     -0.14654335      1.26498474
H       3.61070728     -0.31900961     -0.39821139
H      -0.55276904     -0.07021220     -0.96169145
H      -3.54347604     -0.35624271      0.74347204
