17
b3lypvtz=-217666.18458743
C      -2.46577563     -0.62169237     -0.09220089
C      -1.21956033     -0.98970116      0.16248581
C      -0.04091019     -0.05966436      0.26258353
O       1.03623008     -0.52248806     -0.55331165
C       1.93328541     -1.40605072      0.08839872
O      -0.40788754      1.21159987     -0.15430523
C       0.57017539      2.21237161      0.08467325
H      -3.26140463     -1.35196131     -0.15808536
H      -2.72317956      0.41635486     -0.24832325
H      -0.97742684     -2.03559101      0.31566151
H       0.32464664     -0.02394063      1.30572545
H       2.74822999     -1.59230453     -0.60870856
H       1.46779211     -2.36583929      0.34035556
H       2.34327966     -0.96794712      1.00702622
H       0.81772298      2.27335258      1.15122772
H       1.48145878      2.02193155     -0.48487075
H       0.13491369      3.15703208     -0.23340209
