14
b3lypvtz=-203687.23479002
N       2.58690666     -0.69024371     -0.00761007
C       1.50963637     -0.28427134     -0.02317982
C       0.13305848      0.22326639     -0.00976009
O       0.11837246      1.64023248     -0.07453150
C      -0.81124911     -0.35806688      1.08735371
C      -1.92490287     -0.48120103      0.01667973
C      -0.84356229     -0.32590504     -1.08258777
H       0.58781789      1.99423188      0.68977719
H      -0.46573850     -1.32573903      1.44780676
H      -0.98428788      0.30305237      1.93523413
H      -2.61512209      0.35910078      0.03738230
H      -2.49448307     -1.40750064      0.01356901
H      -1.03188120      0.36896805     -1.89756755
H      -0.50878783     -1.28029527     -1.48367302
