17
b3lypvtz=-191965.34844904
C      -2.80114624     -0.78065844     -0.35343347
N      -2.18401357      0.08074945      0.32876947
C      -1.16338712      0.88299268     -0.32518535
C       0.15580395      0.86942841      0.46587969
C       0.80137640     -0.49408561      0.49586453
N       1.95830846     -0.86905658      0.14330456
C       2.94597093      0.04530862     -0.39450170
H      -3.57568185     -1.38110336      0.11871220
H      -2.60218493     -0.96702991     -1.41641023
H      -0.98989166      0.56822814     -1.36428372
H      -1.53120124      1.91229446     -0.34672004
H       0.81847211      1.62749691      0.05341496
H      -0.07254511      1.15835366      1.49627376
H       0.15339973     -1.27873811      0.89129075
H       3.29676223     -0.35071127     -1.34971117
H       3.80986740      0.05123710      0.27415915
H       2.62150949      1.07957385     -0.54610041
