22
b3lypvtz=-183437.08306521
C       2.93011779     -0.27663237     -0.05013969
C       1.58863809      0.43667366      0.07252479
N       0.49542119     -0.51588176     -0.09489878
C      -0.89641277     -0.02749696     -0.00970472
C      -1.79044654     -1.26509034     -0.15846894
C      -1.21457155      0.67157298      1.32764214
C      -1.16883151      0.93288271     -1.17594156
H       3.75630559      0.42982944      0.04357819
H       3.04820862     -1.02801065      0.73492666
H       3.00942759     -0.78250907     -1.01278000
H       1.51339282      1.19230464     -0.71166059
H       1.55738578      0.97722723      1.03102651
H       0.61475627     -1.27532085      0.56675715
H      -2.84602104     -0.99146606     -0.12953902
H      -1.60948084     -1.97533039      0.65267861
H      -1.58467930     -1.77057542     -1.10214752
H      -0.60814749      1.56712238      1.46818859
H      -2.26250400      0.97520896      1.37032276
H      -1.02643589      0.00022436      2.16891758
H      -0.90202038      0.46255573     -2.12291224
H      -0.59967783      1.85848131     -1.08183814
H      -2.22584158      1.20144047     -1.20709777
