15
b3lypvtz=-214532.66194451
C      -3.26521088      0.16159634      0.05816014
C      -1.92181621     -0.41228941     -0.26528225
C      -0.78987651      0.00998362      0.27777886
O       0.40746366     -0.62418326      0.02320948
C       1.54981957      0.14697425     -0.03224903
N       1.64341930      1.40103074     -0.18092539
N       2.64023763     -0.66932936      0.12992965
H      -3.76302270      0.53018882     -0.84233319
H      -3.19002225      0.98850355      0.76517747
H      -3.92343893     -0.59425033      0.49504411
H      -1.87528709     -1.23099889     -0.97514128
H      -0.73437099      0.82148699      0.99482259
H       0.74262223      1.84931709     -0.29745803
H       2.49753818     -1.64764268     -0.05290441
H       3.50877600     -0.27881346     -0.19214570
