18
b3lypvtz=-181900.17497673
C       1.87041201     -1.27708097      0.00748614
C       1.08468926      0.00522421     -0.00811816
C       1.87213539      1.28390438      0.05132718
C      -0.24566204      0.01195646     -0.07441857
C      -1.33035098      1.07841197     -0.07101857
C      -2.32171247     -0.09950114      0.12834001
N      -1.20616364     -1.03285863     -0.15376668
H       1.23968878     -2.15146337     -0.15455457
H       2.40066356     -1.41590826      0.95630763
H       2.63325491     -1.27667340     -0.77792890
H       1.22829194      2.16337499      0.04587485
H       2.49175807      1.33040864      0.95382893
H       2.55716715      1.36909192     -0.79949677
H      -1.28865904      1.80669413      0.73678823
H      -1.44945577      1.60379579     -1.01868451
H      -2.70982197     -0.16181752      1.14808373
H      -3.14956152     -0.17546871     -0.57705572
H      -1.09640762     -1.86611951      0.40746977
