13
b3lypvtz=-221743.0151140252
C      -2.03303249      0.22555443     -0.01515595
N      -0.63045465     -0.10231311      0.19779490
N      -0.25483253     -1.36453176     -0.31482691
N       0.18409536      0.92978684      0.30862457
C       1.46214605      0.92848928      0.25599046
N       2.30869519     -0.22663574      0.05342536
N       3.48576232     -0.16355589      0.02858091
H      -2.64356701     -0.58585934      0.37254062
H      -2.25661269      0.35667219     -1.07940915
H      -2.25411003      1.14846792      0.51285072
H       0.42203570     -1.77788396      0.31641409
H       1.98120603      1.86587368      0.41271971
H       0.22866875     -1.23406455     -1.20320698
