10
b3lypvtz=-243887.65688374
C      -1.98623302     -0.69404673     -0.13209618
N      -3.01798365     -0.85994804     -0.83482935
N      -0.79141951     -0.11669290     -0.66090355
N       0.08636837     -0.05037194      0.19516431
O       1.21852632      0.51682004     -0.37666316
N       2.20598899      0.56960932      0.65854443
N       3.20809713      1.06316131      0.18060720
H      -1.95947487     -0.98551172      0.91678358
H      -2.85394383     -0.52799315     -1.78793593
H       3.89007409      1.08497383      0.94618208
