12
b3lypvtz=-200539.95411485
N      -3.44934919     -0.67529102     -0.00013143
C      -2.45908731     -0.08091644     -0.00009315
C      -1.26034356      0.67086100      0.00001022
C      -0.05120568      0.07952618     -0.00002058
N       1.14201670      0.74781815      0.00007822
C       2.41602359      0.17478780      0.00005572
N       2.76273034     -1.04042865     -0.00005184
H      -1.35938822      1.74973484      0.00011594
H       0.02171819     -0.99887140     -0.00012997
H       1.11119279      1.75524854      0.00017309
H       3.18931200      0.94047369      0.00014615
H       1.98419834     -1.69650268     -0.00013237
