13
b3lypvtz=-213760.89392862
C      -2.48053351      0.34031336      0.00000201
O      -1.50072069     -0.68404835     -0.00003335
C      -0.21188831     -0.26483662     -0.00001605
C       0.31832344      1.01092351     -0.00002757
N       1.67083892      0.83594597     -0.00003049
H       2.37733058      1.54893948      0.00009614
N       2.04036654     -0.44952506      0.00003907
C       0.90186034     -1.13226855     -0.00000627
H      -2.39411330      0.96908173      0.89212076
H      -2.39411173      0.96914639     -0.89207081
H      -3.44853970     -0.15409739     -0.00001820
H      -0.13388287      1.98566322     -0.00006116
H       0.90291929     -2.20922469      0.00010892
