16
b3lypvtz=-204434.48513226
C      -0.80627365      0.36901500      0.99399051
C      -1.03181166     -0.87874409      0.08454230
C      -0.03910233     -0.51723364     -1.03949462
C       1.21224810     -0.07001748     -0.25692392
C       0.24523681      1.08849956      0.12731293
N      -0.24794585      0.94814904     -1.27963135
O       1.68682685     -0.95886945      0.72488684
H      -0.42352919      0.10230398      1.97840873
H      -1.70308171      0.97568294      1.12343720
H      -0.77703535     -1.81270617      0.58311890
H      -2.05118617     -0.95529727     -0.29511743
H       0.02269336     -1.17036394     -1.90700164
H       1.99797943      0.27437386     -0.92805744
H       0.59702569      2.06889938      0.44296478
H      -1.22973737      1.19583847     -1.38140042
H       2.54769303     -0.65953019      1.02896460
