18
b3lypvtz=-205222.06838238
C       2.43477458     -0.36576580      0.69631239
C       1.49916051     -0.40552176     -0.52341911
C       0.23796139      0.39644508     -0.29726721
N       0.08467034      1.61883755     -0.60491747
C      -0.93940276     -0.27925427      0.39363980
C      -1.58056678     -1.35254962     -0.49626103
O      -1.91215928      0.66906736      0.76840847
H       3.33739489     -0.94582746      0.50183805
H       2.73213235      0.65771866      0.92686408
H       1.95439502     -0.78232967      1.58209504
H       2.01903785     -0.00333025     -1.39581478
H       1.24946324     -1.44322778     -0.75056695
H       0.90021025      2.01227032     -1.07187827
H      -0.55764788     -0.76704151      1.30126125
H      -1.92158229     -0.90868457     -1.43242288
H      -0.89556187     -2.17194894     -0.71902446
H      -2.44653168     -1.76279545      0.02179963
H      -1.62170689      1.50756112      0.37029647
