17
b3lypvtz=-191964.18689135
C      -1.67500179      0.65159094     -1.30772500
C      -0.90987884      0.07531943     -0.13894258
C      -1.50602558      0.07829681      1.23301085
N      -1.44638354     -1.15581233      0.44958039
C       0.57394422      0.19676473     -0.21441301
N       1.34400337     -0.62186626      0.36061946
C       2.77575059     -0.42930358      0.26546207
H      -1.40972265      0.14246485     -2.23687394
H      -2.74540650      0.52816486     -1.15268073
H      -1.46345966      1.71652034     -1.43038254
H      -0.82987816      0.19030177      2.07198299
H      -2.49767366      0.49335766      1.37196159
H      -0.65466854     -1.71210617      0.76663284
H       0.95935549      1.04071832     -0.80413431
H       3.19058567     -0.30625130      1.26837316
H       3.23298584     -1.32595755     -0.15794799
H       3.06147372      0.43779745     -0.34452329
