18
b3lypvtz=-181886.48170972
C      -2.19568813     -0.24859984      0.09564738
C      -0.85459005      0.11762801     -0.51605507
C      -0.10583633      1.33413023      0.13752618
C       1.21941520      0.61805761      0.43616036
C       1.39820703     -0.22097922     -0.85019127
N       0.16493403     -0.97938331     -0.39434803
C       0.70353187     -0.72116184      1.00413048
H      -2.12599168     -0.42136543      1.17067995
H      -2.91432085      0.55860561     -0.06002527
H      -2.59031231     -1.15342342     -0.36789800
H      -0.99966020      0.28996824     -1.58381784
H       0.01177816      2.17677245     -0.54483254
H      -0.59854989      1.69463596      1.04216566
H       2.02176864      1.19445366      0.89591730
H       2.26748834     -0.87628879     -0.83759350
H       1.30503113      0.26818614     -1.82122583
H      -0.03579694     -0.71158082      1.80421465
H       1.48863398     -1.44024224      1.23076337
