13
b3lypvtz=-190455.14306613
C      -2.51123071     -0.49184630     -0.09306846
C      -1.58299414      0.41866849     -0.35045529
C      -0.49035055      0.81951616      0.60617326
C       0.89144851      0.48544204      0.06911945
N       1.77431771      1.29253627     -0.35401167
C       1.20982192     -0.93214183      0.03695960
N       1.41493863     -2.06467775      0.05285147
H      -2.54339282     -1.02268219      0.85071919
H      -3.27201905     -0.74112250     -0.82039883
H      -1.57570175      0.92375944     -1.31124543
H      -0.63298604      0.31265588      1.56308973
H      -0.51963895      1.89726518      0.78759450
H       1.44427224      2.25598411     -0.27737952
