14
b3lypvtz=-203686.80567394
C      -3.29779298     -0.10987092     -0.14078902
O      -1.94565357     -0.52189695     -0.19235334
C      -1.05155213      0.46203899      0.28522204
C       0.32664531     -0.11090529      0.29350697
C       1.40340704      0.53664989     -0.15352149
C       2.71955569     -0.00330774     -0.08838557
N       3.79560315     -0.41613023     -0.04704256
H      -3.60721517      0.12171972      0.88576913
H      -3.47361287      0.77325702     -0.76670389
H      -3.89894696     -0.93517713     -0.51605451
H      -1.32645948      0.75246000      1.31227556
H      -1.09418016      1.36969332     -0.33166919
H       0.42322909     -1.10578188      0.71230898
H       1.31975404      1.52502921     -0.59094909
