16
b3lypvtz=-204472.92678306
C      -1.72675272     -1.41528499      0.00061586
C      -1.20299989      0.01697249     -0.00463770
O      -2.00548654      0.93986388     -0.01161047
C       0.24390502      0.26816367     -0.00206328
C       0.71752698      1.69682098      0.00417427
C       1.12652711     -0.75731191     -0.00244996
N       2.48480953     -0.62554205      0.03923820
H      -1.38268600     -1.97355625     -0.87186181
H      -1.40354279     -1.95639737      0.89180408
H      -2.81251374     -1.37446569     -0.01266974
H       1.32772390      1.92980985     -0.87535381
H      -0.14092675      2.36347431      0.00065068
H       1.31981824      1.92159298      0.88995021
H       0.78622910     -1.78353707     -0.00022672
H       3.05875733     -1.41723074     -0.18603661
H       2.89407619      0.27535992     -0.13927020
