11
b3lypvtz=-236277.0507057
N      -2.75659545      0.92877967     -0.00000111
C      -2.41976491     -0.27231364     -0.00005238
O      -1.14368198     -0.83765192     -0.00000525
N      -0.13193882      0.10451938      0.00005579
C       1.01919385     -0.44048850      0.00008772
C       2.18964152      0.46332436      0.00006196
O       3.32370292      0.05232410     -0.00015722
H      -1.95189745      1.55374578      0.00004808
H      -3.12762103     -1.09457093     -0.00006947
H       1.17503823     -1.51633261      0.00008473
H       1.94530211      1.54029132     -0.00007386
