14
b3lypvtz=-224562.14109035
C      -2.11731538     -0.88107870      0.43753275
N      -1.00777378     -0.79355664     -0.52002513
C       0.18513300     -0.19952629     -0.09868886
C       0.16405811      1.25032432      0.22916044
N      -0.69830090      2.08157333     -0.18967586
N       1.24002386     -0.93136134     -0.10022090
O       2.41212276     -0.18584681      0.13252328
H      -3.00044141     -1.24997640     -0.08192039
H      -1.89859539     -1.54722999      1.27940753
H      -2.34667124      0.10546838      0.83389904
H      -0.80385876     -1.69342089     -0.93548127
H       0.96829489      1.60256177      0.86794134
H      -1.36682732      1.60939397     -0.80451023
H       3.08775755     -0.87007069      0.14765025
