10
b3lypvtz=-223071.4509446
O       1.11967934     -0.18706715      0.28158952
C       2.29375946     -0.08309145      0.01956789
C       2.97736070      1.19492491     -0.15912095
C       2.55329694      2.50754936     -0.09401131
N       3.60340017      3.32137588     -0.34350963
N       4.66660506      2.59189816     -0.56259743
N       4.30128259      1.31550889     -0.45422796
H       4.98954386      0.59189241     -0.59085529
H       2.93429401     -0.98034672     -0.10323424
H       1.56817787      2.88415572      0.11539940
