17
b3lypvtz=-191973.08771791
C      -2.94636974      0.21102987     -0.37731853
C      -1.99041239     -0.38929057      0.32107195
C      -0.65368068     -0.80281991     -0.21269565
C       0.52316163     -0.02834564      0.43525963
N       0.53971129      1.40668717      0.17834636
C       1.84691157     -0.65211483      0.02242827
N       2.89498499     -0.04408750     -0.33127155
H      -2.82380161      0.43542344     -1.43070636
H      -3.89020931      0.48861349      0.07325567
H      -2.16252628     -0.59778906      1.37459705
H      -0.61863720     -0.65934232     -1.29670483
H      -0.50381495     -1.87249271     -0.02794009
H       0.44598027     -0.16110382      1.52155099
H       0.41780554      1.59036144     -0.81220511
H      -0.22565939      1.86539066      0.65524069
H       1.86774406     -1.74510130      0.04539514
H       2.72717821      0.96595959     -0.28260964
