18
b3lypvtz=-205189.28321493
C       2.15277282     -0.91299155     -0.49331492
N       1.31488941     -0.58398533      0.65600763
C       0.24819538      0.40704777      0.45259405
C       0.69322639      1.76530150     -0.11054705
C      -0.85949506     -0.18408143     -0.39502432
C      -1.94211561     -0.96611788      0.19490117
O      -2.15950996      0.39202198     -0.21464869
H       2.90940917     -1.63164505     -0.17766030
H       2.67078850     -0.06051166     -0.95369724
H       1.55657347     -1.39781356     -1.26745504
H       1.89924118     -0.28231897      1.42470823
H      -0.18782273      0.57979282      1.43979282
H       1.09605810      1.67428558     -1.12071766
H      -0.15479722      2.45014172     -0.15097923
H       1.46281668      2.21325122      0.52137191
H      -0.61416331     -0.36765412     -1.43869170
H      -2.45743677     -1.71484061     -0.39792500
H      -1.94799045     -1.13333643      1.26702435
