15
b3lypvtz=-212102.99495409
C      -1.80697099      0.76589974      0.20259334
C      -0.88840432     -0.36810212     -0.17665095
N      -1.25352192     -1.53303476     -0.53767185
N       0.48672919     -0.09540568     -0.12090523
C       1.49231567     -1.09479576     -0.46203368
N       0.84725334      1.14011914      0.26236683
N       2.08389294      1.32960755      0.29278079
H      -1.62090631      1.10032356      1.22247088
H      -1.65496208      1.62940184     -0.44377500
H      -2.83809582      0.42900865      0.11680641
H      -2.26575069     -1.60339715     -0.53735242
H       2.15103276     -1.25877880      0.39036910
H       0.96816592     -2.00359042     -0.73019840
H       2.10174231     -0.73530536     -1.29085296
H       2.19748000      2.29804958      0.59779189
