12
b3lypvtz=-200503.88334544
C      -1.62340660      0.19253296     -0.74926781
C      -0.34962513     -0.58240311     -0.77304071
C       0.49920492      0.05009897      0.06241529
C      -0.22429165      1.20555057      0.60619155
N      -1.42465160      1.31389530      0.16793633
N       1.83637663     -0.22666599      0.43495029
N       2.32603789     -1.23635589     -0.10222456
H      -2.47479668     -0.40965357     -0.41243071
H      -1.90113905      0.57363223     -1.73851836
H      -0.15221934     -1.47295418     -1.34758504
H       0.20037561      1.91039965      1.31198642
H       3.28813502     -1.31807694      0.25280988
