13
b3lypvtz=-211352.54697417
C       2.39757910     -0.17345849     -0.58258713
C       1.50938175      0.22259752      0.59113805
N       0.08825820      0.12598373      0.27287802
C      -0.81057229      1.07235320     -0.04347680
N      -1.96665355      0.50327947     -0.29137329
N      -1.75864340     -0.82809684     -0.12251925
N      -0.53800818     -1.06561159      0.21240177
H       2.23712477      0.48514591     -1.43656839
H       2.18924005     -1.19708131     -0.89047842
H       3.44603340     -0.10706260     -0.29019659
H       1.69717811      1.25034208      0.90038510
H       1.68850847     -0.42293182      1.44968262
H      -0.59726143      2.12660273     -0.07529869
