12
b3lypvtz=-200507.6347163
C       2.78568978     -0.83451586      0.80175512
C       1.70894230     -0.46058612      0.42847838
C       0.43045031      0.00916616     -0.03759184
N       0.49307577      1.11707970     -0.84206072
N      -0.63135796     -0.62477366      0.31725097
C      -1.86151135     -0.28626457     -0.23676121
N      -2.98274786     -0.34047137      0.35607998
H       3.72891599     -1.18408584      1.14219976
H      -0.33936638      1.65291548     -1.01359979
H       1.37132808      1.59335310     -0.94430813
H      -1.86296414     -0.00944978     -1.29749872
H      -2.84045456     -0.63236724      1.32595620
