19
b3lypvtz=-192724.59307011
C       1.78496072     -1.35480433      0.16835168
N       0.97244329     -0.49846529     -0.69106776
C       0.04097609      0.35917100      0.00325560
C      -1.12780526     -0.31066036      0.70758802
N      -1.91172714     -1.09018458     -0.25838206
C      -0.21880974      1.69437755     -0.65026343
C       0.61927668      1.60905456      0.60159347
H       2.45102373     -1.95262943     -0.45477804
H       1.21391163     -2.04438567      0.80604750
H       2.40589484     -0.73646740      0.81859964
H       0.44430219     -1.07408656     -1.33724881
H      -0.75273623     -1.00380724      1.46479497
H      -1.71171407      0.45186897      1.24092870
H      -2.59606611     -1.66837445      0.21295828
H      -2.42270944     -0.47115140     -0.87742647
H      -1.20824212      2.12584146     -0.56991831
H       0.29546844      1.88854250     -1.57999564
H       1.68447531      1.75520549      0.49494345
H       0.19877119      1.98102417      1.52635121
