19
b3lypvtz=-192738.51861603
C      -2.69734618      0.19308153      0.08815428
N      -1.65011178     -0.40571264     -0.27686513
C      -0.51821255      0.39278641     -0.71437659
C       0.77542306      0.01192263      0.03709582
C       1.89683125      0.94949633     -0.41937515
C       1.15620113     -1.44950037     -0.25748506
N       0.53425019      0.26314802      1.46849721
H      -3.55678951     -0.38569578      0.42098139
H      -2.79887215      1.28545323      0.08901282
H      -0.36815843      0.19184364     -1.77889378
H      -0.70231285      1.46746474     -0.58493159
H       1.64728977      1.98655712     -0.19419246
H       2.07760829      0.85508939     -1.49133087
H       2.82931884      0.70721517      0.09570555
H       0.34859131     -2.12179085      0.02972327
H       2.05369281     -1.72363144      0.30130349
H       1.36243347     -1.60551371     -1.31930313
H      -0.17573040     -0.37457171      1.81253507
H       1.37736272      0.07274331      1.99918184
