9
b3lypvtz=-258812.99260549
N       2.55352967      0.55040504     -0.50355034
N       1.66436952      0.03255264      0.13196932
O       0.43040050      0.24189499     -0.62143252
C      -0.65118986     -0.29524880     -0.00933767
O      -0.68676042     -0.88834149      1.02943321
C      -1.93046844     -0.05751113     -0.83080454
O      -1.97575643      0.52368804     -1.87475476
H       3.40681734      0.38928263      0.04569343
H      -2.81104187     -0.49662193     -0.32831613
