18
b3lypvtz=-202793.52111358
C       0.39780902      1.70520722      0.01243704
C      -0.09802776      0.31289469     -0.03251609
N       0.25683690      0.92215152      1.25625962
C       0.79433458     -0.80142386     -0.56934939
N       2.20986478     -0.58979189     -0.25304498
C      -1.58223852      0.05592941     -0.19200488
N      -1.98050357     -1.08526242      0.63915831
H      -0.29450413      2.53159878     -0.09604157
H       1.40285307      1.90605260     -0.33878142
H       1.18300446      0.58067772      1.50676633
H       0.46620503     -1.72896842     -0.09874457
H       0.60615397     -0.91147869     -1.64505587
H       2.69020300     -1.47034234     -0.13221107
H       2.68786030     -0.08892816     -0.99029273
H      -2.12083748      0.98136402      0.04642507
H      -1.80083597     -0.18702534     -1.23618876
H      -1.85616784     -0.83507193      1.61426809
H      -2.96200985     -1.29758288      0.50891685
