9
b3lypvtz=-212222.94192793
N       2.96940400     -0.54562392     -0.16438705
C       1.89246021     -0.26333417      0.12353998
C       0.53946758      0.06866802      0.50804574
O      -0.00002126      1.28540479      0.00027112
C      -0.53949239      0.06890479     -0.50808417
C      -1.89247420     -0.26330095     -0.12372927
N      -2.96940923     -0.54575322      0.16407656
H       0.28390948     -0.15870887      1.53692839
H      -0.28394419     -0.15797647     -1.53707831
