21
b3lypvtz=-195909.68661277
C      -2.85189426      0.30591523     -0.00000204
C      -1.53928310     -0.45567003      0.00000091
O      -0.48875611      0.49762955      0.00000092
C       0.87460999      0.02930799      0.00000142
C       1.17628863     -0.78712495      1.26299906
C       1.69487373      1.31916428      0.00000562
C       1.17629130     -0.78711845     -1.26299981
H      -2.92610383      0.94091254     -0.88327335
H      -3.69413939     -0.38825916     -0.00000189
H      -2.92610599      0.94091550      0.88326698
H      -1.48292506     -1.10164947      0.88373660
H      -1.48292266     -1.10165233     -0.88373255
H       0.64001057     -1.73653913      1.27376300
H       0.89724778     -0.22256342      2.15365557
H       2.24209548     -1.01308328      1.32059162
H       2.76336725      1.10026188      0.00000524
H       1.46023275      1.91421669      0.88283167
H       1.46023324      1.91422207     -0.88281694
H       2.24209792     -1.01307838     -1.32059029
H       0.89725417     -0.22255151     -2.15365404
H       0.64001158     -1.73653163     -1.27377070
