19
b3lypvtz=-171845.55903129
C      -3.29501104     -0.39397075      0.00000156
C      -1.93235707      0.22506434     -0.00000004
C      -0.78573345     -0.46185109      0.00000199
C       0.57008743      0.09115175      0.00000017
C       0.71395501      1.58981462     -0.00000422
C       1.60891204     -0.76221265      0.00000285
C       3.07388232     -0.46136907      0.00000137
H      -3.87237462     -0.08322001     -0.87608684
H      -3.24153567     -1.48329342      0.00001519
H      -3.87238237     -0.08319836      0.87607702
H      -1.90586512      1.30983713     -0.00000337
H      -0.84049920     -1.54780304      0.00000585
H       0.23006006      2.02592575     -0.87757335
H       1.75248074      1.90923618     -0.00000520
H       0.23006092      2.02593019      0.87756321
H       1.36765887     -1.82193762      0.00000704
H       3.55909665     -0.90443141     -0.87526050
H       3.55909229     -0.90439708      0.87528325
H       3.29880920      0.60302754     -0.00001897
