17
b3lypvtz=-191972.79668529
C      -2.75145039     -0.61223642      0.18439124
N      -1.77673489     -0.17935496     -0.48714986
C      -0.55005027      0.17956320      0.21651317
C      -0.29821194      1.67668232      0.03473725
C       0.59825603     -0.67421247     -0.36015828
C       1.88860050     -0.51085421      0.39439963
N       3.00830002     -0.11645639     -0.04614871
H      -2.72742116     -0.73880899      1.27461534
H      -3.67521032     -0.87991325     -0.32429093
H      -0.64138493     -0.04082625      1.29151633
H       0.64226392      1.97269936      0.50041180
H      -0.25480015      1.92434171     -1.02685993
H      -1.10293818      2.25802348      0.48536213
H       0.73862840     -0.42962871     -1.41547308
H       0.29740095     -1.72530837     -0.30504699
H       1.84473352     -0.77064451      1.45658505
H       2.94812287      0.10251645     -1.04371016
