14
b3lypvtz=-180356.36693213
C       2.71367507     -0.83071051     -0.45021610
C       1.89734384     -0.09059506      0.02335170
C       0.89434130      0.80765959      0.58395481
C      -0.52060200      0.55614957      0.05416927
N      -1.23009026      1.44613934     -0.51096458
C      -1.05203621     -0.80899905      0.27444878
C      -2.28600260     -1.18266890     -0.05061646
H       3.43780908     -1.48238193     -0.87134779
H       1.17192340      1.84438837      0.38226036
H       0.87920808      0.68923783      1.67333455
H      -0.73089689      2.33101465     -0.58796884
H      -0.37211240     -1.52023499      0.72787428
H      -2.63379258     -2.18987135      0.13438585
H      -2.97167182     -0.48393056     -0.51115283
