15
b3lypvtz=-216839.94967163
C       0.74034085      0.94920939     -0.86990650
C      -0.19236178      1.60021581      0.27264873
C      -0.92403565      0.21505789      0.26788240
C       0.37444225     -0.36919015     -0.11795089
O      -0.24638742     -1.72573454     -0.17529207
C      -1.16520795     -1.19295259      0.88966120
O      -1.83040622      0.33581520     -0.83453458
H       1.79262144      1.22413954     -0.89238604
H       0.28236748      1.07861571     -1.84313830
H       0.36739330      1.81280284      1.17988848
H      -0.79642643      2.45469324     -0.02104261
H       1.05366913     -0.41187136      0.73810797
H      -2.16305521     -1.61914833      0.80026165
H      -0.73672690     -1.36543189      1.87767516
H      -1.87082687     -0.52382077     -1.27357459
