10
b3lypvtz=-223093.03085735
N       1.86602153     -1.75786031     -0.00002919
C       1.32345311     -0.74258109     -0.00000429
C       0.73452671      0.58453622     -0.00001274
N       1.42530281      1.65073324     -0.00003525
N      -0.64675997      0.64562338      0.00000171
C      -1.54231280     -0.40965436      0.00002271
O      -2.73485500     -0.24996326      0.00001680
H       2.42236349      1.45862814     -0.00004347
H      -1.03897636      1.57921735     -0.00000865
H      -1.05562753     -1.39568830      0.00000738
