11
b3lypvtz=-189652.30949092
C       2.17190536      1.31220889      0.40394005
C       1.10325314      0.77346913      0.35264214
C      -0.18157187      0.12636600      0.26370715
C      -0.29529309     -1.32330439     -0.12812837
N      -0.46781945     -0.93899338      1.26202914
C      -1.28358219      0.98090300     -0.12559122
N      -2.18067424      1.64145942     -0.41605144
H       3.11831035      1.79037998      0.45909585
H       0.62423188     -1.84823602     -0.34911095
H      -1.15831940     -1.60551746     -0.71810965
H      -1.45044047     -0.90873514      1.51738505
