15
b3lypvtz=-193594.68592826
C       1.80010039      1.92453463      0.08160264
C       1.28191181      0.84099150      0.01171377
C       0.74196128     -0.48037298     -0.05168373
C       1.73955584     -1.59959432      0.13148191
C      -0.56203709     -0.71066171     -0.26890447
C      -1.62784914      0.32133277     -0.45808393
O      -2.73146000      0.11441842      0.42793963
H       2.24410854      2.88703677      0.13722431
H       2.50755339     -1.56322295     -0.64382294
H       1.24705563     -2.56999313      0.08853090
H       2.25126049     -1.50749422      1.09158028
H      -0.90518033     -1.73965560     -0.29961416
H      -2.05384861      0.23849755     -1.46081770
H      -1.21706090      1.32884456     -0.35462670
H      -2.40443831      0.19101269      1.33003319
