17
b3lypvtz=-191979.84069249
N      -3.71340202     -0.14568860      0.07839855
C      -2.42668150      0.36203199      0.14140127
C      -1.29173084     -0.30809261     -0.12242522
C       0.01341515      0.31120738     -0.12187111
C       1.17374398     -0.30726680     -0.37654113
C       2.51159625      0.36216972     -0.36969028
N       3.43047046     -0.32372036      0.55309370
H      -3.79374649     -1.15078308      0.08038979
H      -4.39370353      0.29780042      0.67329013
H      -2.38457591      1.42098044      0.37283954
H      -1.34354216     -1.36837179     -0.35556706
H       0.03688295      1.37563193      0.10553143
H       1.18232516     -1.37140277     -0.59460618
H       2.96141775      0.29567612     -1.36669080
H       2.37883661      1.43227037     -0.15503584
H       4.35255355      0.09499706      0.51179861
H       3.09992161     -0.22228942      1.50599861
