17
b3lypvtz=-215282.405909
C       1.94865477      0.78773457      0.67076987
C       1.23282963     -0.11761741     -0.00368255
N       1.69849313     -1.38563735     -0.35161327
C      -0.21490630      0.10997205     -0.39754030
O      -0.59730263      1.47843698     -0.33980813
C      -1.18757542     -0.64664235      0.50309226
N      -2.53709094     -0.58285715     -0.05864711
H       2.98425084      0.61158176      0.93091662
H       1.49074155      1.70246072      1.01137858
H       1.35882633     -1.74367443     -1.23198740
H       2.69200242     -1.52183446     -0.24724544
H      -0.35822532     -0.26893091     -1.42082683
H       0.03070675      1.99097745     -0.85917123
H      -1.09424689     -0.22338747      1.51217412
H      -0.87399558     -1.68982329      0.55074994
H      -2.84799961      0.38148085     -0.07581204
H      -3.18674172     -1.09296157      0.52714091
