10
b3lypvtz=-202150.04667544
C       2.06198996     -0.85598658      0.04932708
C       1.06475176     -0.18695216      0.02959644
C      -0.08028570      0.65440998      0.00818271
C      -1.35199422      0.20678859     -0.03830052
C      -1.68818335     -1.16422099     -0.07136352
N      -2.00128567     -2.27526469     -0.09936208
O       0.13773906      1.99555065      0.03736590
H       2.93024247     -1.46805644      0.06603889
H      -2.15841058      0.92755194     -0.05107805
H       1.08543626      2.16617969      0.06959314
