13
b3lypvtz=-237049.95109382
N      -2.89468316     -0.55838198     -0.04744329
C      -1.72509590      0.14887495      0.00725257
C      -0.48553403     -0.37769030      0.00456270
C       0.70101856      0.43906580      0.00031670
O       0.50184670      1.78978758      0.00176076
N       1.92537289      0.05549574     -0.00081616
O       2.03563121     -1.36172182     -0.00058426
H      -2.86493760     -1.54964786      0.12375632
H      -3.73985321     -0.10222706      0.24567051
H      -1.85095381      1.22372417      0.01255617
H      -0.32684063     -1.44604185      0.00147969
H       1.37949768      2.19491663      0.00007833
H       2.98876830     -1.48211700     -0.00643704
