11
b3lypvtz=-238705.94589085
O       2.18514366      0.50218228      1.35496579
C       1.19360391      0.34306192      0.70877181
O       0.35726199      1.36425479      0.36079795
C      -0.86665430      0.88008889     -0.23079226
C      -0.66116280     -0.60004500     -0.44285400
O       0.46705486     -0.86948141     -1.27131928
C       0.62811828     -0.93956363      0.15759818
H      -1.68788346      1.07785074      0.46035613
H      -1.03252693      1.41987562     -1.16267199
H      -1.49558993     -1.28559819     -0.51358955
H       0.91273472     -1.89272601      0.57883722
