11
b3lypvtz=-238687.98399064
C      -1.08694551      0.59543011      0.28178805
C      -0.71107656     -0.59173550     -0.53021933
C       0.31134384      0.01465571      0.41103661
C       1.07916988      0.31865968     -0.85531779
O       2.15500837      0.70358107     -1.16940950
O       0.05457857     -0.13459048     -1.68585398
O       0.81505544     -0.31453128      1.64160753
H      -1.69181819      0.39149144      1.15728285
H      -1.25893645      1.54924222     -0.20020629
H      -1.17908070     -1.56035835     -0.58775441
H       1.51270133     -0.97184463      1.53704626
