15
b3lypvtz=-212098.0495331
N       2.24628169     -1.11993755      0.14820904
N       1.03215580     -0.93386397     -0.07904924
C       0.65028232      0.43114866     -0.07918698
N       1.65070985      1.37384147      0.07152300
C      -0.65833108      0.70855769     -0.26126970
C      -1.75381309     -0.27785336     -0.50404920
N      -2.79402516     -0.13000749      0.53022632
H       2.39778599     -2.13524108      0.14013846
H       2.49821682      0.99553416      0.46875639
H       1.36895208      2.26424900      0.44491516
H      -0.96955807      1.74721410     -0.21790396
H      -1.34026397     -1.28467856     -0.58715345
H      -2.22840497     -0.04040490     -1.46250694
H      -3.59820252     -0.70208191      0.29910027
H      -2.44046771     -0.46661326      1.41886983
