19
b3lypvtz=-192744.18450575
C       2.20110851      0.30140722     -0.04136720
C       1.13156517     -0.71906151     -0.42866654
C      -0.31056336     -0.38367354      0.02311362
C      -1.25359081     -1.51946225     -0.41935551
N      -0.32574153     -0.16935833      1.47484283
C      -0.75766480      0.90046731     -0.67002042
N      -0.94420791      2.03458209     -0.14741029
H       2.26402034      0.42392834      1.03931431
H       1.99246250      1.28186554     -0.47038035
H       3.17855670     -0.02105638     -0.40335820
H       1.12191159     -0.84860582     -1.51395626
H       1.38777342     -1.69947500     -0.01268746
H      -0.94022725     -2.46589889      0.02543132
H      -1.25695930     -1.64094276     -1.50481791
H      -2.27913763     -1.31697666     -0.10332215
H       0.17564200     -0.91111249      1.94887760
H      -1.27662087     -0.18422423      1.82659471
H      -0.92509516      0.79735158     -1.74620541
H      -0.73058163      1.97920879      0.85345531
