13
b3lypvtz=-239495.91332556
C      -1.45315252     -0.49953083      0.22059015
C       0.00061409     -0.27202423     -0.19021845
C       0.16049419      0.91616938     -1.11500886
O       1.20778021      1.48193269     -1.33819229
C       0.96127060     -0.27948610      1.02049663
O       0.64979679     -0.78013807      2.06469758
O       2.17192587      0.25186516      0.81813539
H      -1.53880693     -1.40672273      0.81198249
H      -1.82115477      0.32660885      0.82973092
H      -2.09171785     -0.59239029     -0.65919066
H       0.33261880     -1.12473540     -0.80183535
H      -0.76267209      1.24924290     -1.62324272
H       2.18310361      0.72930865     -0.03794484
