12
b3lypvtz=-200520.14675948
N      -2.06756690      1.44544419      0.44399927
C      -1.99048084      0.20966844      0.20827220
C      -0.73629691     -0.59939626     -0.04732641
N       0.45979656      0.22323806      0.00462191
C       1.57885772     -0.32732004     -0.19676595
C       2.79391940      0.44314273     -0.15545716
N       3.79818354      1.00635037     -0.13496284
H      -1.13223037      1.86096798      0.44244588
H      -2.91337735     -0.37457177      0.17752214
H      -0.68069582     -1.40638319      0.69380368
H      -0.82568828     -1.08882082     -1.02514013
H       1.71557926     -1.39241969     -0.41091257
