10
b3lypvtz=-202142.83037296
C       2.13455330     -0.80955621      0.00919028
C       1.08812133     -0.25364083      0.18161930
C      -0.22502008      0.35466188      0.37848692
C      -1.32290507     -0.66269881     -0.05782763
O      -2.12075060     -1.10823497      0.70928902
C      -0.38665561      1.59399665     -0.38854379
N      -0.55930711      2.54814831     -1.00639790
H       3.07207989     -1.28660864     -0.13761367
H      -0.39758766      0.56692721      1.43649678
H      -1.28252839     -0.94299458     -1.12479931
