14
b3lypvtz=-226995.19742887
C      -0.62565553     -1.26088990     -0.23015344
C      -0.78075240      0.27069865     -0.40965065
C       0.66253158      0.70515721     -0.31315581
C       1.39123969     -0.34279902      0.09076213
O       0.72690627     -1.50675588      0.23539750
O       2.69102822     -0.47542601      0.40198350
N      -1.71478339      0.83160669      0.58242349
H      -1.31657949     -1.65203317      0.51257724
H      -0.74963719     -1.80055271     -1.16859260
H      -1.22061446      0.48300294     -1.38604624
H       1.02506223      1.70641495     -0.47832599
H       3.11583814      0.38561765      0.32940428
H      -1.94066517      1.79018023      0.34179667
H      -1.26391849      0.86577837      1.49157993
