12
b3lypvtz=-226132.07933226
N       1.23862557     -0.00258148      0.07294553
C       0.71329524     -0.82551932     -0.69063208
O       1.21287737     -1.44532235     -1.89903442
C       0.24327472     -2.56828699     -1.59943193
C      -1.12007607     -3.29007615     -1.88762829
O      -1.56051209     -2.70263355     -0.58812808
C      -0.59459337     -1.60532514     -0.91616200
H       2.17511967      0.26796017     -0.22347120
H       0.78034868     -3.21935154     -0.91316328
H      -1.12392728     -4.37637611     -1.84818649
H      -1.71054166     -2.89538729     -2.71412997
H      -1.13409080     -0.97450023     -1.63067779
