19
b3lypvtz=-171836.92465153
C      -3.48164021      0.53788825     -0.31884089
C      -2.29402662      0.50431162      0.27180516
C      -1.41009469     -0.71017076      0.37813409
C      -0.08770623     -0.52025691     -0.31764987
C       1.10148810     -0.54196522      0.27526675
C       2.41979129     -0.33412583     -0.40966045
C       3.18824536      0.87926896      0.13115089
H      -3.91438093     -0.34564795     -0.77429421
H      -4.06661129      1.44706475     -0.36649262
H      -1.89314441      1.41344961      0.71142259
H      -1.22693802     -0.93771865      1.43303710
H      -1.93620702     -1.56980340     -0.04900824
H      -0.14117630     -0.34057877     -1.38887729
H       1.14637734     -0.71351107      1.34960977
H       3.03951861     -1.22805264     -0.27825592
H       2.25953283     -0.22255372     -1.48464794
H       2.62370612      1.79963374     -0.02636114
H       3.37293499      0.78261724      1.20306639
H       4.15466309      0.98437175     -0.36468217
