16
b3lypvtz=-227748.49070617
C       2.21339245      0.16582704     -0.78256368
C       0.71981230     -0.02774601     -0.80263237
N       0.11740353     -1.24707629     -0.23270600
C      -0.07748989      0.04945603      0.43880663
C      -1.51599923      0.52876457      0.44687493
O      -2.04429424      0.15018043      1.70817562
O      -2.24427658     -0.01374197     -0.61536469
H       2.69453074     -0.42456061     -1.56516724
H       2.63864190     -0.13279531      0.17800250
H       2.47097575      1.21330675     -0.95185333
H       0.22829629      0.27758354     -1.72022917
H       0.80606518     -1.81024266      0.25384423
H       0.45304843      0.22673678      1.36675658
H      -1.56902662      1.61647164      0.32928219
H      -2.98750800      0.34517578      1.69213149
H      -1.90377201     -0.91743970     -0.73115768
