18
b3lypvtz=-202788.22912539
C       2.36214282     -0.49455521      0.44563624
N       1.02188783      0.05302359      0.56579648
C       0.32170217      0.23152672     -0.67101936
C      -1.00513512     -0.50989775     -0.82203810
C      -0.99196137      0.98585612     -0.61481457
N      -1.42055497      1.52037578      0.65797721
N      -1.47023062     -1.30948281      0.28863610
H       3.02291666      0.08586326     -0.21648366
H       2.31529638     -1.51222223      0.05227520
H       2.82582554     -0.54229857      1.43145738
H       0.99618590      0.90702925      1.10990922
H       0.93351762      0.36546472     -1.56130965
H      -1.27871915     -0.88358105     -1.80025067
H      -1.21539420      1.60991605     -1.47071959
H      -1.95626069      0.80741089      1.14810770
H      -2.02570182      2.31696234      0.51797016
H      -1.72567708     -2.23639152     -0.02167846
H      -0.70983990     -1.39499958      0.96054839
