15
b3lypvtz=-191163.70393525
C      -1.64119660     -0.93044957      0.03183890
C      -0.46769811     -0.03327128      0.25835585
C       0.95132487     -0.45326586      0.58969862
C       1.48541682      0.65710183     -0.24822388
C       0.07822465      1.08990562     -0.56686883
N      -0.59270101      1.36774920      0.73230964
N       1.61535221     -0.75109050     -0.70281696
H      -2.03547627     -1.31154961      0.97744313
H      -2.44996735     -0.40409326     -0.47907067
H      -1.34896726     -1.78184945     -0.58447389
H       1.33552767     -0.83164782      1.52597277
H       2.35241103      1.27441607     -0.06426059
H      -0.30675691      1.48705087     -1.49517154
H      -1.54200282      1.67255856      0.52127904
H       2.56650909     -1.05156479     -0.49601160
