17
b3lypvtz=-194365.19792747
C      -2.49815452     -0.49773921     -0.12774800
C      -1.49597136      0.30512759     -0.47068201
C      -0.12727792      0.34401828      0.10425056
C       0.44952469      1.73685175      0.26720970
C       0.31504441     -0.72376883      1.08425910
C       0.82727381     -0.77902489     -0.31264690
O       2.19508491     -0.53216446     -0.48453228
H      -3.44961655     -0.45240537     -0.64024579
H      -2.41469234     -1.22118911      0.67316324
H      -1.66210841      1.02009887     -1.27375194
H       0.36658759      2.30352908     -0.66426944
H       1.50196717      1.69717310      0.54238077
H      -0.08850779      2.29115207      1.03873115
H       1.02817948     -0.41330425      1.83600574
H      -0.38531801     -1.47825803      1.41221060
H       0.41210902     -1.53717700     -0.96946256
H       2.34104581     -0.22209260     -1.38436494
