17
b3lypvtz=-191984.45908691
C      -2.84912725     -0.77108244     -0.00771181
C      -1.65515077      0.12054492      0.09198325
N      -0.47795717     -0.31658460     -0.11519924
C       0.63411558      0.53182328     -0.03812374
N       0.39844870      1.92235362      0.06940534
C       1.87126297      0.00403756     -0.00983941
C       2.20102909     -1.45257959      0.02739109
H      -2.55271159     -1.78151810     -0.28168961
H      -3.55500211     -0.38776473     -0.75068894
H      -3.38654326     -0.79742857      0.94492022
H      -1.84412013      1.15997477      0.37822069
H       1.25614447      2.45552008      0.07187942
H      -0.21524721      2.27546810     -0.65484801
H       2.70693808      0.69641169      0.02239189
H       2.91018410     -1.71303272     -0.76390940
H       1.30560045     -2.05743279     -0.09284300
H       2.67643705     -1.73055049      0.97413324
