17
b3lypvtz=-194363.42312987
C       2.87610213     -0.17820948     -0.19868022
C       1.77562657      0.12111698     -0.87651680
C       0.62542044      0.93067164     -0.35091844
C      -0.69226474      0.17872249     -0.39146328
C      -1.07035821     -0.78840784      0.70986401
C      -1.80170187      0.51720696      0.54420230
O      -3.09750124      0.52387076      0.00410611
H       3.02522774      0.16164314      0.81997575
H       3.66989127     -0.76989006     -0.63562273
H       1.66950144     -0.24330917     -1.89524677
H       0.84058045      1.24769492      0.67286552
H       0.52276567      1.84425732     -0.94818355
H      -1.02832963     -0.10795552     -1.38113666
H      -1.59835560     -1.68776548      0.42402578
H      -0.39484633     -0.89994170      1.54839917
H      -1.61452062      1.29456841      1.28053419
H      -3.70723750      0.19748998      0.67379563
