19
b3lypvtz=-171838.27700347
C      -3.32698900     -0.31255608      0.15550677
C      -2.11390010      0.14043848      0.44541292
C      -1.02800007      0.42206318     -0.55989862
C       0.18109973     -0.45128547     -0.34555099
C       1.42823555     -0.08728032     -0.03586717
C       1.89290881      1.33082167      0.15805082
C       2.50796694     -1.12242054      0.14344972
H      -4.06233892     -0.50129416      0.92675178
H      -3.63030554     -0.50798995     -0.86689558
H      -1.84719743      0.31670512      1.48384452
H      -1.42651172      0.25141255     -1.56520461
H      -0.75519001      1.47807534     -0.50655304
H      -0.01857932     -1.51435773     -0.44914258
H       1.10205779      2.06719984      0.03667359
H       2.68952117      1.57279617     -0.55210875
H       2.32125916      1.45931807      1.15668731
H       3.32962223     -0.95734975     -0.56051722
H       2.94297740     -1.06506662      1.14608698
H       2.12957833     -2.13308378     -0.00598186
