17
b3lypvtz=-191979.62470373
C      -2.85506523     -0.78082588     -0.00017099
C      -1.81593033      0.06184007     -0.00014804
N      -0.48975106     -0.30529185      0.00019081
C       0.62435721      0.51453504      0.00006747
C       0.41806844      1.99823075      0.00000374
C       1.85641264     -0.02756049      0.00004641
N       2.01230230     -1.45498168      0.00009092
H      -2.72571841     -1.85548744      0.00007648
H      -3.86281959     -0.39680409     -0.00044126
H      -1.98961433      1.12920615     -0.00039849
H      -0.25835034     -1.28983461      0.00028767
H       1.38119037      2.50379313      0.00007512
H      -0.13926364      2.32658946      0.88062086
H      -0.13910392      2.32655903     -0.88072663
H       2.72484650      0.62175899      0.00001572
H       2.52282458     -1.77836507      0.81394875
H       2.52209481     -1.77851752     -0.81416454
