16
b3lypvtz=-181132.56478841
C      -1.63341572      1.51362467     -0.56455017
C      -0.75427347      0.57444155     -0.23342489
C      -1.06609471     -0.72563523      0.48037039
N      -0.00931860     -1.65487944      0.03361876
C       1.14228629     -0.87038450     -0.36381065
C       1.66544765      0.20273879      0.55120064
C       0.68945672      0.55127549     -0.56766504
H      -2.68730657      1.40691514     -0.34188969
H      -1.32845521      2.42043487     -1.07036971
H      -2.05527457     -1.10832914      0.22508338
H      -1.05158468     -0.56023120      1.56624118
H       0.22176325     -2.33082519      0.75078337
H       1.81715228     -1.35000904     -1.06022076
H       1.31691604      0.24384915      1.57476103
H       2.68577465      0.53322918      0.40972224
H       1.04722662      1.15378490     -1.38985009
