16
b3lypvtz=-227741.50309952
C      -1.72497503      1.14464145     -0.41256956
N      -0.80424065      0.01730415     -0.43137817
C      -0.93041183     -0.98108792      0.62775027
C       0.21355715     -0.03683757      0.60687377
C       1.58983496     -0.45201993      0.12690206
O       1.51529249     -1.26151692     -1.01013814
O       2.29229227      0.75609556     -0.12121751
H      -1.99919207      1.45602220      0.60467012
H      -2.63597674      0.87523212     -0.94848272
H      -1.26276823      1.99143389     -0.92017070
H      -1.69214640     -0.81956055      1.38389280
H      -0.79073032     -2.00945834      0.31911948
H       0.21877002      0.75743861      1.34599701
H       2.11175282     -1.04131786      0.88831240
H       0.76832824     -0.91492891     -1.52740074
H       3.13061329      0.51866004     -0.53216037
