12
b3lypvtz=-252120.78300705
N      -0.34253348      1.24272079      0.07895775
C      -0.45462920     -0.11845306      0.01421320
C       0.72555737     -0.97739653      0.01980988
C       2.00581779     -0.63308205     -0.00082802
F       2.43182377      0.65275530     -0.03445140
N      -1.58003399     -0.75667071     -0.01440060
O      -2.65244849      0.17236885     -0.02839271
H       0.53697199      1.66090042     -0.16127948
H      -1.17762904      1.76205176     -0.13086484
H       0.51124171     -2.03619378      0.03728949
H       2.83266406     -1.32746281      0.00377652
H      -3.42038248     -0.40300018     -0.07859180
