16
b3lypvtz=-227754.89651113
N       0.33720988      1.41281768     -0.33199393
C       0.43007550      0.03568144     -0.27269033
C      -0.63313682     -0.78880213     -0.20896078
C      -2.05045780     -0.29964297     -0.20260575
O      -2.31495174      0.70112553      0.80454196
C       1.83688629     -0.49369693     -0.37432497
O       2.73516821      0.13481537      0.54496386
H      -0.51577346      1.80081413      0.04294660
H       1.17167453      1.89974029     -0.04388254
H      -0.45849984     -1.85599621     -0.20216399
H      -2.74221824     -1.13889724     -0.08571973
H      -2.30387619      0.20116602     -1.14145040
H      -2.03102339      0.33514972      1.64915501
H       2.24233019     -0.26244022     -1.36173477
H       1.83414818     -1.57922845     -0.25369841
H       2.46244469     -0.10260601      1.43751816
