15
b3lypvtz=-191165.90478668
C      -1.27436174      0.77831834      0.12188405
C      -0.87397071     -0.62717517     -0.30131772
C       0.39956280     -0.17335358     -0.89234956
C       0.24526875      1.11378892      0.03577267
C       0.82579079      0.21925615      1.13263695
N       0.43670119     -0.99606161      0.34832119
N       0.77940492      2.41784129     -0.19163075
H      -1.83529548      1.27332511     -0.67275358
H      -1.77410396      0.93027614      1.08278233
H      -1.50459858     -1.45237810     -0.59348306
H       0.93336190     -0.40778464     -1.80172258
H       0.39891569      0.29202262      2.13764723
H       1.91377473      0.26060429      1.18019139
H       0.15458817      3.00511001     -0.72919127
H       0.99186150      2.89321025      0.67661272
