14
b3lypvtz=-227000.11611168
C       2.70222072     -0.72899433     -0.00000231
C       1.65912627      0.36675352      0.00000225
O       0.36643423     -0.25789782      0.00001971
C      -0.71911209      0.53080793      0.00001976
N      -0.82010398      1.79591683      0.00000810
C      -2.00997211     -0.25550446      0.00001600
O      -2.07474183     -1.45375820     -0.00003597
H       2.60046084     -1.35777677     -0.88389036
H       2.60047959     -1.35776666      0.88389510
H       3.70055789     -0.28968737     -0.00001532
H       1.75090202      1.00118313     -0.88669580
H       1.75092068      1.00119450      0.88669021
H       0.07394253      2.28090535     -0.00000762
H      -2.89595577      0.40261735     -0.00000772
