20
b3lypvtz=-182660.92362506
C       0.33948323      2.10427926     -0.05991931
C       0.32852636      0.58125418     -0.24003099
C       1.66435840     -0.01363704      0.23273066
N       1.81633489     -1.42092081     -0.15032607
C      -0.86592336     -0.03357992      0.46417960
C      -1.49484940     -1.31269679     -0.00278720
C      -2.23010545     -0.01005815     -0.17829797
H       0.46320384      2.36984061      0.99346326
H       1.15686249      2.56720329     -0.61640120
H      -0.59678743      2.54553157     -0.40274633
H       0.23292268      0.36774031     -1.31259296
H       1.70431202      0.04037394      1.32466084
H       2.47858335      0.62488794     -0.14009480
H       1.94868539     -1.49817308     -1.15260430
H       2.64377595     -1.81671443      0.27927656
H      -0.85712951      0.11896847      1.53926067
H      -1.07430409     -1.78443380     -0.87903858
H      -1.85272411     -2.00975761      0.74231324
H      -3.09294003      0.18514156      0.44371823
H      -2.30718421      0.39463351     -1.17963937
