17
b3lypvtz=-217671.7550957
C       3.35396038     -0.70300884      0.08472316
C       2.24721650      0.24832281     -0.25033283
C       0.99472939      0.09094373      0.15485931
O       0.01061450      0.99433625     -0.16423740
C      -1.26190011      0.69975222      0.31544230
O      -1.80111036     -0.37638146     -0.41448209
C      -3.09425319     -0.73937951      0.02728070
H       3.80196179     -1.12831935     -0.81772484
H       2.99802267     -1.53034165      0.70066430
H       4.15956644     -0.20342279      0.63032926
H       2.48348970      1.11127900     -0.86334040
H       0.67162553     -0.75470882      0.75313940
H      -1.23030946      0.44311667      1.38706975
H      -1.86061211      1.60576726      0.17413627
H      -3.09214470     -1.04465665      1.08122207
H      -3.41711495     -1.57978676     -0.58296591
H      -3.80928103      0.08347887     -0.09498705
