20
b3lypvtz=-205974.90722359
C      -2.17950965     -0.58014576      0.69450457
C      -1.19172910      0.06970456     -0.27314592
C      -1.66864563      1.43357485     -0.74805299
O       0.08711627      0.27341526      0.32907528
C       0.87217571     -0.89422921      0.51901522
C       2.28109205     -0.46076383      0.87222784
N       2.89303814      0.24236075     -0.25607029
H      -2.30708188      0.04598791      1.57955721
H      -1.84169563     -1.56529742      1.01676098
H      -3.15304217     -0.70526835      0.21727445
H      -1.06170305     -0.58844886     -1.14368765
H      -1.77533448      2.11249646      0.09978123
H      -2.63477562      1.35179492     -1.24777989
H      -0.95314107      1.86726341     -1.44641064
H       0.89064791     -1.48713338     -0.40422462
H       0.46503153     -1.51655088      1.32494695
H       2.23656877      0.13129234      1.79729309
H       2.86898259     -1.35649939      1.08728485
H       3.82553837      0.55600659     -0.01617729
H       2.34666696      1.07044004     -0.46277239
