13
b3lypvtz=-190432.34937435118
C       1.87031566      0.46552197      0.08794087
C       0.66720965      1.09619124      0.19306324
C      -0.34723378      0.08209474      0.01310079
N      -1.65502929      0.34430143      0.05356742
N      -2.62876017     -0.49094733     -0.09537388
C       0.29171958     -1.18507448     -0.20464872
C       1.63553414     -0.94768131     -0.15843570
H       2.84102998      0.92844598      0.17189457
H       0.48558917      2.14491340      0.37462273
H      -1.86165910      1.32969062      0.22398530
H      -3.49319725      0.03971055     -0.00666436
H      -0.21649618     -2.11928844     -0.36882119
H       2.41097760     -1.68787835     -0.28423103
