14
b3lypvtz=-203680.69037449
N       2.17765970      0.17589088     -0.14798554
C       0.79769890      0.17154294     -0.14503187
C       0.05887214     -1.07068468      0.31716419
C      -1.40338319     -0.66465793      0.21416649
O      -1.78865077      0.41256486      1.06950347
C      -1.44705584      0.69742118     -0.32648631
C      -0.05003483      1.13947306     -0.53960320
H       2.62539049     -0.45292137      0.49820354
H       2.62302361      1.07891058     -0.18426676
H       0.33131420     -1.34772655      1.33967454
H       0.28254227     -1.92624906     -0.32734243
H      -2.16327332     -1.41547452      0.03204604
H      -2.27314449      1.07905154     -0.91198139
H       0.22874113      2.12295908     -0.88806079
