17
b3lypvtz=-191958.31618882
C      -2.92172527     -0.73148189      0.12782927
C      -1.98373305      0.20954104      0.12593148
C      -0.57194803     -0.01427424     -0.23284453
N       0.15373918      1.12580817     -0.84953969
C       0.54080280      0.67184055      0.48054307
C       1.88601818      0.00379188      0.70268326
N       2.24117580     -0.90811166     -0.38778557
H      -3.94258361     -0.51329199      0.41035015
H      -2.70163927     -1.75440311     -0.15511401
H      -2.23641239      1.22877717      0.40120310
H      -0.34626168     -0.99576601     -0.63598801
H       0.82017076      0.73728506     -1.51428542
H       0.26970763      1.36069665      1.27540129
H       2.64511390      0.78973282      0.74190066
H       1.88258258     -0.47530014      1.68992667
H       1.89548197     -1.84310313     -0.21582698
H       3.24384149     -0.97683516     -0.49227172
