13
b3lypvtz=-190439.40054771
C       2.68124353      0.00046134      0.25885612
C       1.25310428     -0.02826085     -0.01793456
C       0.07485320     -0.04133380     -0.25105816
C      -1.37374508     -0.09588952     -0.50526286
C      -1.90712867      1.26470016     -0.71647031
N      -2.31700001      2.32558406     -0.88263727
N      -2.17843693     -0.77019487      0.52361232
H       2.87403339     -0.08212118      1.33065425
H       3.19480753     -0.82323171     -0.24137336
H       3.12391605      0.93571480     -0.09057073
H      -1.54190114     -0.63603562     -1.44259886
H      -2.02790701     -0.32247765      1.42102144
H      -1.85583914     -1.72691515      0.61376199
