13
b3lypvtz=-213757.73537223
N      -2.69693765     -0.84726257     -0.75407479
C      -2.36463546      0.29843529     -0.31649845
C      -0.99855644      0.78086461     -0.03595952
N       0.02854442      0.04115630     -0.22079587
C       1.29806112      0.50155317      0.04404155
C       2.33856890     -0.32921135     -0.17220037
O       2.21751962     -1.58165283     -0.63105396
H      -1.85690033     -1.41610355     -0.89238646
H      -3.15986275      1.01903796     -0.12015970
H      -0.90384748      1.80520691      0.33912791
H       1.46723145      1.50727126      0.41806977
H       3.36338299     -0.03969403      0.01228245
H       1.26743160     -1.73990116     -0.76249256
