19
b3lypvtz=-171836.50462179
C       3.27741649      0.36462587      0.09167448
C       2.24854182     -0.45228568     -0.09552456
C       0.87070735     -0.03280691     -0.51178461
C      -0.20127871     -0.41089640      0.53473618
C      -1.61245805     -0.07533646      0.11538130
C      -2.50131821     -1.02728503     -0.15919004
C      -1.96423906      1.38578668      0.03077801
H       4.24792128     -0.00397318      0.39713650
H       3.18671389      1.43474418     -0.05674475
H       2.38853377     -1.51831557      0.06748538
H       0.61071761     -0.52186087     -1.45663140
H       0.85861970      1.04311114     -0.69657387
H       0.03530442      0.10713928      1.47015643
H      -0.13084432     -1.48102371      0.74133110
H      -3.51343474     -0.78976966     -0.46233368
H      -2.24777223     -2.07771688     -0.08761254
H      -1.78789486      1.88318421      0.98917526
H      -1.34857230      1.90521462     -0.70802663
H      -3.00895384      1.53020040     -0.24176056
