15
b3lypvtz=-191210.45082454
C       2.68835832     -0.72452116     -0.12545669
C       1.77906938      0.19884708     -0.40839194
C       0.77970749      0.75804534      0.57096144
C      -0.64957880      0.50546042      0.12720976
N      -1.45798694      1.37761821     -0.31650609
C      -1.13281031     -0.91771590      0.21685397
N      -2.29200692     -1.31338789     -0.09643729
H       2.77739373     -1.15212522      0.86638656
H       3.38043067     -1.08357708     -0.87540136
H       1.72114442      0.59944340     -1.41603372
H       0.93953873      0.30447242      1.55306700
H       0.92440364      1.83670235      0.67727821
H      -1.04249352      2.30837743     -0.33205479
H      -0.41422795     -1.64769108      0.59010416
H      -2.83644694     -0.50998533     -0.42994022
