17
b3lypvtz=-171035.18635645
C      -2.55312249     -0.27596328     -0.00035879
C      -1.53581385      0.57839558      0.00023942
C      -0.10027861      0.19396441      0.00010479
C       0.67033291     -0.64859571     -1.07220507
C       1.72735594     -0.27763263     -0.00002251
C       1.12672307      1.15338974     -0.00053908
C       0.67075541     -0.64761212      1.07292147
H      -3.57962066      0.06583278     -0.00017214
H      -2.39768093     -1.34869992     -0.00106530
H      -1.74447995      1.64471700      0.00087757
H       0.39548210     -1.70108035     -1.14899469
H       0.77988361     -0.18848705     -2.05472975
H       2.78152784     -0.54548289     -0.00012100
H       1.27814383      1.74836319      0.90134933
H       1.27779743      1.74757919     -0.90300060
H       0.78073541     -0.18661742      2.05498035
H       0.39589293     -1.70002251      1.15079500
