16
b3lypvtz=-181131.08313814
C      -0.86856577     -2.09776155     -0.03854345
C      -0.37967497     -0.86312682     -0.00899537
C      -1.12602130      0.40736881      0.34761371
C      -0.36618324      1.49646437     -0.44299787
N       0.99795341      0.99445900     -0.72844645
C       1.70082258      0.51365807      0.45660310
C       0.98605272     -0.45672894     -0.42303791
H      -1.89695234     -2.30742813      0.22491702
H      -0.25433899     -2.94196315     -0.32492238
H      -2.18013696      0.35617955      0.07959083
H      -1.07997315      0.58727352      1.42433061
H      -0.30721637      2.45088779      0.08123715
H      -0.84617004      1.67286046     -1.40642976
H       1.28778278      0.71799311      1.43822398
H       2.78028115      0.57596172      0.39925485
H       1.55224048     -1.10609781     -1.07819806
