12
b3lypvtz=-252140.91034833
C       2.47077105     -0.32815736      0.43382086
O       1.18801317     -0.72873976     -0.04093649
C       0.31405222      0.25489000     -0.36432515
N       0.44766670      1.50871572     -0.32049104
N      -0.84876980     -0.34060602     -0.89126796
C      -1.91395677     -0.40420280     -0.25634332
F      -2.08956128      0.02484271      1.00525056
H       2.38712395      0.25460929      1.35364467
H       3.01203710     -1.24804091      0.63475263
H       3.00531975      0.25179709     -0.32170834
H       1.36508189      1.79997111      0.00023561
H      -2.82794698     -0.82630008     -0.65702403
