14
b3lypvtz=-227010.88258038
O      -2.02849280     -1.91439428     -0.24409649
C      -1.10952640     -1.14595639     -0.16984603
C      -1.32426275      0.35969723     -0.20504324
N      -0.11056937      1.11776799     -0.47919537
C       0.97579250      0.66995289      0.37871033
C       1.29795718     -0.75280019     -0.01744783
O       0.14118688     -1.61800484      0.03084837
H      -1.78208626      0.60281411      0.76840677
H      -2.07517816      0.55203742     -0.96923997
H      -0.28304004      2.10887537     -0.37587253
H       1.85725504      1.29069525      0.21208191
H       0.72956561      0.71353851      1.45264095
H       1.68692354     -0.77779633     -1.03675856
H       2.02457505     -1.20642674      0.65491169
