14
b3lypvtz=-224594.41399672
C       0.17976745     -0.46447146      0.53915406
C      -1.01879526     -0.03625331      0.11193561
N      -1.36985198      1.30491514      0.02380353
N      -2.04734254     -0.89795730     -0.28056203
O       1.18302940      0.46808202      0.83133782
C       2.34504786      0.38909111      0.11094917
N       2.63153860     -0.34547074     -0.86793456
H       0.40079435     -1.49620213      0.77025405
H      -1.85236115      1.54047070     -0.83197250
H      -0.60514460      1.93224753      0.22092902
H      -2.92973454     -0.68187979      0.16547237
H      -1.81881100     -1.87526094     -0.17672289
H       3.06082387      1.09567463      0.52072481
H       1.84103955     -0.93298544     -1.13736845
