16
b3lypvtz=-204454.62423934
C      -1.58088181     -0.52704636     -0.09545045
C      -0.30563597      0.30900524     -0.15054862
C       0.90015489     -0.43321954     -0.81609232
C       1.50291905     -0.76735171      0.57874044
C       0.49609279      0.22044356      1.17884298
O       0.43535136      0.82437061      2.21180518
N      -0.60619511      1.62110560     -0.69261691
H      -2.01926190     -0.58801434     -1.09249015
H      -2.30801809     -0.06914535      0.57828454
H      -1.38565787     -1.53835846      0.26279863
H       0.63731136     -1.27830988     -1.44847119
H       1.52531108      0.25284612     -1.38576806
H       1.32120943     -1.79142971      0.90845788
H       2.55178664     -0.52948796      0.75120016
H      -1.35947254      2.05641212     -0.17127462
H       0.19498666      2.23818005     -0.61741751
