13
b3lypvtz=-213768.83899549
O      -2.29485235     -0.36950417      0.00732351
C      -0.98462233      0.01720760      0.07541171
C      -0.52927114      1.18990855      0.52627426
N       0.83260095      1.53619777      0.57388749
C       1.64319659      0.64122538      0.14987441
N       1.29966949     -0.58914217     -0.33183443
C      -0.07582671     -1.06251291     -0.43203520
H      -2.85381122      0.34254554      0.33832470
H      -1.21631660      1.94837301      0.88632151
H       2.71107136      0.83860283      0.15693176
H       2.03528709     -1.20230555     -0.63497341
H      -0.33942613     -1.31091055     -1.46970127
H      -0.22749902     -1.97968532      0.15419496
