17
b3lypvtz=-215308.52525667
C      -2.72782914     -0.13867203     -0.07745415
N      -1.35573862     -0.41595902     -0.46126264
C      -0.28542445      0.22688632      0.07955635
O      -0.38814530      1.11609596      0.91022477
C       1.09502087     -0.25582009     -0.40241476
C       1.64290158     -1.27830722      0.59849795
N       2.04781410      0.84023919     -0.55271854
H      -3.19725495     -1.01266841      0.37875271
H      -3.32247081      0.16984417     -0.93924645
H      -2.70880246      0.67068992      0.64742458
H      -1.18267102     -1.13022000     -1.14717820
H       0.98959533     -0.73886533     -1.37849757
H       2.62136664     -1.62497340      0.26895838
H       0.97691780     -2.13656834      0.70064577
H       1.75139217     -0.81534309      1.58052539
H       2.01921155      1.39963900      0.29517484
H       1.74779070      1.46040736     -1.29724944
