15
b3lypvtz=-214504.92138847
C      -1.26450350     -1.65600942     -0.70570920
C      -0.70704562     -0.57865087     -0.14274591
C       0.73917880     -0.39930487     -0.18343014
N       1.30005725      0.64123807      0.30677689
N       2.66380467      0.71169503      0.31107640
C      -1.53205734      0.46271805      0.58376640
O      -1.33913696      1.78313575      0.10042350
H      -0.66662064     -2.41829758     -1.19022484
H      -2.33521921     -1.80818544     -0.69458635
H       1.33333233     -1.19055160     -0.65354450
H       3.12958558      0.15971777     -0.40447126
H       2.97483203      1.67040231      0.32013001
H      -1.30231490      0.40553196      1.65585416
H      -2.59018129      0.23587130      0.45902099
H      -0.40361120      1.98058954      0.23776384
