14
b3lypvtz=-227006.26466286
C      -1.10733858      1.56809719     -0.10847662
C      -0.52726091      0.17979406     -0.00648116
C       0.96607220      0.12595045      0.02981125
O       1.68574474      1.08105182      0.17195963
O       1.45881097     -1.13427791     -0.12313610
C      -1.25448995     -0.90065716      0.73319566
N      -1.25165063     -0.88777450     -0.72373913
H      -0.79729361      2.18170626      0.73678492
H      -2.19392319      1.50754486     -0.12994906
H      -0.77095718      2.06104183     -1.02100770
H       2.42237500     -1.05994246     -0.07158273
H      -2.19772147     -0.64040773      1.19754065
H      -0.67050095     -1.65089422      1.25004545
H      -0.59492543     -1.57760149     -1.07317207
