13
b3lypvtz=-242052.12306701
C       2.02091453     -0.99069817     -0.31761809
N       1.14060626     -0.66434054      0.53085005
C       0.05397603      0.14857900      0.18399483
C       0.13909462      1.31915301     -0.44574284
F       1.30924621      1.80669056     -0.91519680
C      -1.26237206     -0.33696560      0.75183633
O      -2.38593507      0.43658568      0.36987157
H       2.86378640     -1.59340450      0.01143168
H       1.98355901     -0.70668236     -1.37133573
H      -0.68651765      2.00239004     -0.56503072
H      -1.21018900     -0.29450560      1.84128671
H      -1.39131878     -1.39251783      0.48397312
H      -2.57485050      0.26581631     -0.55822010
