16
b3lypvtz=-202028.84463873
C      -0.97049728      0.97503322     -0.02363433
C       0.21929333     -0.01903893      0.12872366
C      -0.68742607     -1.00112629     -0.68614088
N      -1.85937465     -0.16482204     -0.34072446
C       1.50862358      0.40101991     -0.53449462
N       2.60736599      0.66117348      0.03298879
N       0.44926919     -0.35618753      1.52408568
H      -1.22989074      1.53351606      0.87779660
H      -0.81630083      1.67897172     -0.84787448
H      -0.73258073     -2.02910029     -0.32025053
H      -0.43509895     -1.00939784     -1.75282909
H      -2.52258352     -0.00936244     -1.08887769
H       1.45709333      0.49787659     -1.62226217
H       2.49682810      0.54844967      1.04546176
H      -0.43389609     -0.47135615      2.00653317
H       0.94917537     -1.23564916      1.60149860
