14
b3lypvtz=-224609.77114902
N      -2.13801570      0.33280745     -1.01636094
C      -1.03754341     -0.11641639     -0.29317387
N      -1.22728526     -1.37524480      0.25758384
N       0.00237172      0.61581134     -0.19335800
C       1.18588356      0.08599489      0.43349059
C       2.36389177      1.02231598      0.22802109
O       3.49297799      0.75763446      0.54796397
H      -3.03190289      0.13850128     -0.58921746
H      -2.03730294      1.30287833     -1.27429393
H      -0.40265940     -1.83273917      0.60824019
H      -1.83340567     -1.99150893     -0.26069066
H       1.07310098     -0.02866138      1.52286050
H       1.49538734     -0.90025881      0.05303516
H       2.09460190      1.98888574     -0.24290046
