12
b3lypvtz=-244723.5864946
C      -1.44797811     -0.35233861      0.39956186
O      -1.36006302     -1.18403938      1.27101394
N      -2.64486997      0.23005993      0.00973842
N      -0.36772395      0.15882257     -0.31498322
N       0.90005216     -0.24339512     -0.00231791
N       1.75221864      0.45720967     -0.56913636
N       3.03191459      0.12110624     -0.22203772
H      -3.44918179     -0.25023247      0.37913117
H      -2.74318757      0.53475333     -0.94544564
H      -0.44836358      1.03090310     -0.82395000
H       3.11766654     -0.81793047      0.15667035
H       3.65951602      0.31508121     -0.98692185
