16
b3lypvtz=-204456.2591839
C       0.14388555      1.85850497      0.46801726
C       0.34666607      0.60611426      0.05188509
C       1.74592369      0.14161366     -0.06483146
O       2.08309783     -0.95613474     -0.44632237
C      -0.75396177     -0.36736926     -0.31303887
C      -0.95481643     -1.40567102      0.79725489
N      -2.01673994      0.34522930     -0.53817500
H      -0.85275365      2.26402413      0.56768466
H       0.98152385      2.49744219      0.72109204
H       2.50383146      0.89716556      0.22732401
H      -0.40718425     -0.90800579     -1.20300328
H      -1.29583821     -0.91796197      1.71125533
H      -0.02878908     -1.94059441      0.99897249
H      -1.70654622     -2.13841471      0.49556075
H      -1.96876821      0.89620351     -1.38810670
H      -2.76929668     -0.32121168     -0.66285483
