16
b3lypvtz=-204432.30282373686
C      -1.80420175     -0.82120515      0.44818738
C      -2.15296473      0.55602386     -0.07367970
C      -0.77750957      0.28775884      0.44361055
N       0.34394538      0.29574038     -0.46720197
H       2.12412354      1.61648231     -0.51680421
H       0.02636635      0.15430388     -1.41963110
C       1.41198236     -0.59653083     -0.12677345
C       2.65584766     -0.11672208     -0.08855794
O       2.97410395      1.17184646     -0.35297947
H      -2.22579732     -1.13819784      1.39229002
H      -1.68827487     -1.61204891     -0.28120026
H      -2.81219496      1.18375856      0.50910936
H      -2.27242615      0.66782395     -1.14403063
H      -0.52432920      0.71043760      1.40771600
H       1.20595842     -1.63370300      0.11576974
H       3.51537089     -0.72576802      0.15417569
