16
b3lypvtz=-232752.23125224
C      -2.05609312     -0.06401577     -0.30044141
C      -0.77298065      0.11882415      0.47408865
C       0.15272915      1.28195809      0.18702214
C       0.55992110     -0.12499939     -0.17323947
C       1.63471179     -0.81294028      0.60686031
F       2.89298498     -0.42603420      0.11545090
O       0.52807212     -0.50081057     -1.52727939
H      -2.39873172     -1.09939443     -0.25331307
H      -1.92027616      0.19152888     -1.34972042
H      -2.84470424      0.56955153      0.11008385
H      -0.83455294     -0.17555604      1.51618316
H       0.65088428      1.77795821      1.00910295
H      -0.11402049      1.92401718     -0.64143973
H       1.59738081     -0.54866885      1.66462508
H       1.56727007     -1.89603107      0.48892452
H       1.35740501     -0.21538747     -1.92690804
