13
b3lypvtz=-239691.88987436
C      -1.13617240     -0.81046459     -0.51250522
C      -0.43657701      0.44152768     -0.04145395
N       0.79283378      0.55606210      0.33220408
C       1.65093966     -0.50346102      0.45657075
N       2.89071416     -0.54599361      0.25882568
F       1.07349489     -1.64796342      0.93098332
N      -1.20219004      1.55766176     -0.02573075
H      -1.44299426     -1.40642170      0.34650447
H      -0.46655739     -1.42323630     -1.11072756
H      -2.01897886     -0.56908057     -1.10374631
H       3.20828900      0.36195693     -0.06811571
H      -0.78244376      2.42536865      0.26100755
H      -2.13035778      1.56404407     -0.40286714
