16
b3lypvtz=-204466.51098187
C       2.34614199     -0.24046828     -0.59666253
C       1.14916873      0.27207581      0.16854778
O       0.86367368      1.45430518      0.18759320
C       0.27828720     -0.75235510      0.88060831
C      -0.81646625     -1.21752516     -0.05504915
C      -1.84770876     -0.44212391     -0.42557171
N      -2.07917203      0.85420087     -0.01753952
H       2.06615226     -1.08849500     -1.22382442
H       2.77413260      0.55228463     -1.20525245
H       3.09861978     -0.60037065      0.11078894
H      -0.14517102     -0.26853180      1.76551871
H       0.87680436     -1.60352770      1.20623009
H      -0.77571938     -2.22907497     -0.43079074
H      -2.61923615     -0.86056843     -1.06125785
H      -2.74651973      1.37702268     -0.55740534
H      -1.26812128      1.39308481      0.25642268
