17
b3lypvtz=-217672.59180428
C      -1.59773079      1.08493075     -0.49316677
C      -0.65749028     -0.01267279     -0.00521311
C      -0.64604850     -0.10182357      1.52161716
O      -1.17398757     -1.23706868     -0.55572514
C       0.72498661      0.19652673     -0.60651700
C       1.89360607      0.70914951      0.11089117
O       1.76016505     -0.69162335     -0.15971038
H      -1.63401341      1.09860103     -1.58274360
H      -2.60606339      0.89933090     -0.12339037
H      -1.27110122      2.06350133     -0.13954100
H      -0.41627497      0.85943777      1.98326705
H       0.08919353     -0.83255237      1.86165697
H      -1.63105980     -0.41796957      1.86256692
H      -0.55454649     -1.94183260     -0.33351014
H       0.70304445      0.31837670     -1.68683625
H       2.67926473      1.21206107     -0.44377574
H       1.81495696      0.98456314      1.15636022
