17
b3lypvtz=-220270.86553262
C       2.29551276      0.27751050      0.38255085
N       1.11441525      0.31776115     -0.44710910
C       0.27846959     -0.89327704     -0.55677297
C      -0.97389411      0.01318503     -0.57977583
C      -0.04598972      1.10438422      0.00757480
C      -2.18008845     -0.38456587      0.22610685
F      -2.81529095     -1.47832156     -0.37067521
H       3.02571351     -0.41041979     -0.04736936
H       2.75460070      1.26703140      0.42322158
H       2.08615304     -0.04713926      1.41700600
H       0.30600119     -1.52047744      0.34739491
H       0.48071481     -1.51845026     -1.42716656
H      -1.27354859      0.25226178     -1.59951435
H      -0.11328841      2.11371815     -0.40167486
H      -0.12457533      1.16031168      1.10517234
H      -2.90944960      0.42817244      0.27980966
H      -1.90545568     -0.68168513      1.24122125
