13
b3lypvtz=-239471.93612581
C      -1.37284148      0.80248668     -0.76640645
C      -1.11569359     -0.20354803      0.07653379
O      -2.09162753     -1.01613924      0.54447708
C       0.22746572     -0.53595996      0.63284120
O       0.28976207     -1.43777162      1.45437594
C       1.50558382      0.22367979      0.28578565
O       1.62625343      0.72710742     -1.03198979
H      -0.57420984      1.41945169     -1.13960691
H      -2.38757713      0.99836704     -1.08341673
H      -1.65550697     -1.61803929      1.17352827
H       1.55544910      1.09123839      0.94883173
H       2.33301806     -0.43919817      0.55291501
H       1.65982434     -0.01157469     -1.64796880
