17
b3lypvtz=-217681.59258055
C      -3.16499013      0.31397758     -0.02904730
C      -1.92020303     -0.44456366      0.37979265
O      -0.82440051      0.02501076     -0.40814926
C       0.35211926     -0.65351314     -0.19853388
C       1.51547918     -0.02707532     -0.01193314
C       1.70446737      1.44783173      0.07320457
O       2.70779938     -0.70663025      0.09721175
H      -3.03832174      1.38326584      0.14216689
H      -4.02276800     -0.02837288      0.55203267
H      -3.37944767      0.15904312     -1.08675026
H      -1.69659302     -0.29529756      1.44225687
H      -2.05021794     -1.52195672      0.21644515
H       0.28982486     -1.74027452     -0.24583056
H       2.33806360      1.79779897     -0.74531280
H       0.74727034      1.95945035      0.02194382
H       2.20736180      1.70886920      1.00721721
H       2.54764827     -1.65353550      0.01750463
