17
b3lypvtz=-217717.07590696
C      -1.52695610      1.51268421      0.03755791
C      -0.88548529      0.17982883     -0.30274940
C      -1.58373601     -1.00998141      0.33726296
O       0.48835943      0.25667034      0.18192121
C       1.42164676     -0.47812183     -0.45721664
O       1.19223075     -1.19441886     -1.39988780
C       2.77991549     -0.27511223      0.16395132
H      -0.98629683      2.33482389     -0.43119692
H      -1.53377273      1.67545696      1.11645054
H      -2.55781971      1.53250630     -0.31857776
H      -0.83967932      0.03988347     -1.38229241
H      -2.61859034     -1.06436762     -0.00486762
H      -1.08818726     -1.94057834      0.06521673
H      -1.58690167     -0.91376065      1.42439684
H       3.51366669     -0.87667299     -0.36388535
H       3.05749385      0.77825415      0.11705024
H       2.75411229     -0.55709421      1.21686611
