16
b3lypvtz=-181108.5686065
C      -0.82455849      1.28698636     -0.94538350
C      -0.59235995     -0.04256255     -0.26777797
C      -0.93703920     -1.30420882     -0.96149251
N      -1.81737585     -0.77017363      0.09843346
C       0.56101702     -0.07427808      0.73405820
C       1.86914005      0.18614374      0.14077576
C       2.94151283      0.39710471     -0.35366339
H       0.04839530      1.58663366     -1.52667108
H      -1.02519208      2.06549787     -0.20528208
H      -1.68558180      1.22512673     -1.60889035
H      -1.35679873     -1.27365079     -1.95936900
H      -0.34337725     -2.18553917     -0.74825713
H      -1.68361503     -1.29412152      0.95779058
H       0.58341718     -1.05154524      1.22593596
H       0.37087610      0.66531237      1.51954771
H       3.89153988      0.58327436     -0.78839657
