13
b3lypvtz=-192827.76241727
C      -2.53973178     -0.93983818     -0.03990264
C      -1.41239773     -0.55043797     -0.16856772
C      -0.04952948     -0.03740532     -0.27887455
C       0.95853914     -0.94134573      0.40230735
C       2.09347249     -1.33305556     -0.15895196
C       0.01509128      1.35745125      0.37170389
O       0.42071836      2.33289592     -0.19425195
H      -3.53571960     -1.29446939      0.05653835
H       0.22344397      0.09694077     -1.32706441
H       0.70740377     -1.25252449      1.41018790
H       2.79150968     -1.96649603      0.37168965
H       2.36296593     -1.04124959     -1.16659821
H      -0.33634602      1.39155930      1.42137828
