21
b3lypvtz=-195913.67729065
C       1.60768977     -1.25382537     -0.02518212
C       0.84129799      0.00000504     -0.46906370
C       1.60769181      1.25382237     -0.02514758
C      -0.63696180      0.00000279      0.00950402
C      -1.38591916     -1.24980546     -0.47167365
C      -1.38592370      1.24980107     -0.47169385
O      -0.58545817      0.00001280      1.44944263
H       1.59886581     -1.34574772      1.06118882
H       2.64726996     -1.19024229     -0.35070899
H       1.19219696     -2.16866659     -0.44666159
H       0.79940555      0.00001971     -1.56363907
H       1.59886945      1.34571220      1.06122591
H       2.64727108      1.19024901     -0.35067870
H       1.19219771      2.16867625     -0.44659817
H      -1.36400634     -1.33124139     -1.56042698
H      -2.43413885     -1.20014858     -0.16657186
H      -0.95727781     -2.15487808     -0.04685125
H      -0.95728658      2.15488206     -0.04688503
H      -1.36400728      1.33121954     -1.56044841
H      -2.43414411      1.20014578     -0.16659475
H      -1.48700930      0.00000486      1.78585130
