19
b3lypvtz=-192736.34149701
N       3.28937538      0.86151710     -0.21060601
C       2.60025649     -0.36494530      0.21321766
C       1.21888696     -0.41395256     -0.36629661
C       0.10344133     -0.56371161      0.34079519
C      -1.28309877     -0.61872338     -0.22629343
C      -2.19623541      0.48541953      0.31612186
N      -3.54297692      0.36076904     -0.24769352
H       2.84356700      1.67141229      0.20490333
H       4.25153747      0.85686777      0.10647721
H       3.18215135     -1.20750028     -0.17460974
H       2.54171278     -0.49530803      1.30291293
H       1.16448359     -0.30601686     -1.44618922
H       0.18215127     -0.65420665      1.42291902
H      -1.73682118     -1.58734174      0.01975240
H      -1.25563183     -0.55342850     -1.31526026
H      -1.79465073      1.45586761      0.01617614
H      -2.17305537      0.46124846      1.41604304
H      -4.12621374      1.13367295      0.04991371
H      -3.98964267     -0.48434486      0.09093628
