16
b3lypvtz=-202033.3220506
C       3.35207296     -0.02689892     -0.18001694
C       1.99686532     -0.54489428      0.27773914
N       0.94080284      0.39131961     -0.08423048
N      -0.31577482     -0.05311807     -0.03017170
C      -1.29168466      0.77635325      0.03981278
C      -2.68268237      0.30241632      0.02738411
N      -3.10225715     -0.89252818     -0.08898721
H       3.59237070      0.92996398      0.28929011
H       4.13696682     -0.73124335      0.09556510
H       3.37264841      0.11021122     -1.26134620
H       2.00733000     -0.72964594      1.35946240
H       1.75736589     -1.49042311     -0.20720645
H       1.09333130      1.35897351      0.19124956
H      -1.12095910      1.85509543      0.10638901
H      -3.43010545      1.09096665      0.13423702
H      -2.30568769     -1.52824113     -0.18432724
