15
b3lypvtz=-170283.53109224
C      -3.23357706      0.71450265     -0.00002381
C      -2.49200030     -0.39671279      0.00000147
C      -1.07476369     -0.43718230      0.00000363
C       0.13012206     -0.51511335      0.00000552
C       1.55971977     -0.59244187      0.00001006
C       2.38309235      0.44359810      0.74743215
C       2.38309521      0.44356588     -0.74745336
H      -2.78352886      1.69798169     -0.00003714
H      -4.31311795      0.65897527     -0.00002483
H      -2.98993363     -1.36196685      0.00002950
H       1.96087618     -1.59839704      0.00003281
H       3.26283687      0.08934094      1.26604295
H       1.83749795      1.22431828      1.25669390
H       3.26284208      0.08928691     -1.26604524
H       1.83750303      1.22426447     -1.25675061
