13
b3lypvtz=-239673.63303215
C      -0.98666669      0.85992788     -0.12149312
N      -2.23520080      0.85768658     -0.37540014
C      -0.17902957     -0.31897825     -0.44632404
C       1.11592548     -0.36284069     -0.08563877
N       1.84340380      0.62589033      0.56157479
F       1.80483994     -1.51750314     -0.39095101
N      -0.81300127     -1.33002383     -1.14525290
H      -0.44732680      1.68446826      0.34133526
H      -2.67183331      1.73205756     -0.09262480
H       2.18866229      0.33435571      1.46919083
H       2.62666190      0.96135794      0.01163289
H      -0.42744806     -2.25287377     -1.03743054
H      -1.81898692     -1.27352457     -1.08168096
