15
b3lypvtz=-193625.83458865
C       2.36671875     -1.31526484      0.00035462
C       2.06121316     -0.01972672     -0.00010188
C       0.69980683      0.58009331     -0.00073216
O       0.59947711      1.79762059     -0.00088012
C      -0.49109209     -0.30617857     -0.00035131
C      -1.72729395      0.19473898     -0.00036905
C      -2.98615726     -0.60247844      0.00016917
H       3.39801117     -1.64338223      0.00091068
H       1.61781904     -2.09526103      0.00016598
H       2.84651474      0.72755174      0.00000423
H      -0.34287856     -1.37833266      0.00001168
H      -1.82412057      1.27621843     -0.00079159
H      -3.59571180     -0.35752088      0.87476241
H      -2.79569783     -1.67557021      0.00058843
H      -3.59600874     -0.35825348     -0.87442210
