13
b3lypvtz=-213741.93169673
N      -1.65450108      1.29695343     -1.44965383
C      -1.52542923      0.43850742     -0.51255034
N      -2.53746848     -0.19049586      0.19587940
C      -0.20091478      0.00044317     -0.14158381
C       0.89743191     -0.36470892      0.18509006
C       2.26492552     -0.76043410      0.51554826
O       3.17941257      0.32842452      0.52965519
H      -2.63571222      1.52789036     -1.60722511
H      -2.29435465     -0.60011825      1.08236360
H      -3.44934200      0.23556769      0.16016168
H       2.29879367     -1.19376103      1.51642449
H       2.58553636     -1.54187185     -0.18492663
H       3.07162242      0.82370341     -0.28918297
