12
b3lypvtz=-249529.32445204
C      -1.51001411      0.57365586      0.20063751
C      -0.21394654      0.69116228     -0.06941975
O       0.57502972      1.67422347      0.45320382
O       0.40920072     -0.21866196     -0.91494212
C       1.31880636     -1.10869406     -0.35814040
N       1.63949185     -1.27424366      0.83916210
O      -2.30621954     -0.45102553     -0.20825250
H      -2.02211017      1.31524815      0.79318024
H       0.99486960      2.16639795     -0.26414673
H       1.75196493     -1.69710555     -1.16068749
H       1.15710957     -0.64159821      1.47681707
H      -1.79418235     -1.02935873     -0.78741178
