11
b3lypvtz=-241299.59242707
C      -3.00744849     -0.29835396     -0.00010935
N      -1.89354229      0.31534012     -0.00007920
C      -0.73685878     -0.44418657     -0.00003778
C       0.49166504      0.10030866      0.00001116
F       0.68143962      1.41430504      0.00002634
C       1.70756538     -0.72815632      0.00004379
O       2.82959085     -0.28580737      0.00004500
H      -3.09391149     -1.39081460      0.00009350
H      -3.92727290      0.27791299      0.00001932
H      -0.79932465     -1.53273711     -0.00005191
H       1.50367972     -1.81638587     -0.00001388
