10
b3lypvtz=-277086.59061697
O      -0.69021369      1.24999170     -1.36235637
C      -0.27901519      0.42195253     -0.38036324
C      -0.85893421      0.32652788      0.81495476
F      -1.94012579      1.13870066      1.02033995
O       0.80984460     -0.26937945     -0.84693059
C       1.47791873     -1.19226665     -0.11418596
O       1.23333624     -1.53262157      1.00382632
H      -1.45739380      1.73842187     -1.03687216
H      -0.58866444     -0.30419532      1.63705296
H       2.29314755     -1.57703166     -0.73546566
