14
b3lypvtz=-203683.10094586
C      -1.95642684     -0.03267357      0.10835550
C      -0.52164708     -0.22208524     -0.31899281
C       0.52706946     -0.45956149      0.71747405
N       1.84904606     -0.68665724      0.12662488
C       1.81269530      0.53604996     -0.57044053
O       2.57730994      1.03198062     -1.34822916
C       0.46971436      0.89577972      0.03523905
H      -2.47317930     -0.99274801      0.16064814
H      -2.02138882      0.43688031      1.09158592
H      -2.49535952      0.60003918     -0.59860821
H      -0.38852801     -0.71236162     -1.27780635
H       0.33550225     -0.68669672      1.75548277
H       2.13932354     -1.55786932     -0.30048725
H       0.14596864      1.85002341      0.41915401
