14
b3lypvtz=-203696.75097119
C       2.46619571     -0.38845436     -0.09294315
C       1.26961062      0.15927287      0.64986697
O       0.08068208     -0.23147058     -0.06717847
C      -1.08486996      0.17065365      0.44854917
C      -2.25654223     -0.13142106     -0.13046976
C      -3.48454762      0.30051637      0.42527811
N      -4.49600630      0.64421514      0.86408814
H       3.38331149     -0.10753713      0.42601304
H       2.50757515      0.00996738     -1.10649879
H       2.42137948     -1.47585830     -0.14989864
H       1.21626726     -0.24103960      1.66585280
H       1.30409386      1.25054028      0.70743205
H      -1.04202110      0.75620377      1.36216038
H      -2.28512845     -0.71558843     -1.04061376
