19
b3lypvtz=-195138.93453471
C       1.72634692      1.44170926      0.03882754
C       1.20770546      0.03253595      0.27549168
O       2.18373925     -0.85823405     -0.27824292
C      -0.15300272     -0.20203388     -0.33598124
C      -1.01518773     -1.34298310      0.15551888
C      -1.41147307      0.08341704      0.43400698
C      -2.61365208      0.69719235     -0.24249603
H       2.71614667      1.55960183      0.47986403
H       1.80424544      1.64019596     -1.03133238
H       1.05573234      2.17796550      0.48333546
H       1.13234098     -0.14053061      1.35898678
H       1.81661634     -1.74791727     -0.25713671
H      -0.19052351     -0.00463305     -1.40240099
H      -1.59317603     -1.89721992     -0.57218416
H      -0.65031560     -1.94018722      0.98220094
H      -1.26099391      0.40700754      1.45850659
H      -2.53285501      1.78565116     -0.28522286
H      -3.53547524      0.45183252      0.28972093
H      -2.71594549      0.33244397     -1.26645553
