15
b3lypvtz=-219530.83362638
C      -2.75461582     -0.82387026     -0.00257516
C      -1.49929959     -0.00223153      0.00518222
N      -1.72677282      1.36917026     -0.06195412
C      -0.27537635     -0.57250236      0.00658531
C       0.98670717      0.13235139     -0.00624651
C       2.17552851     -0.46473677      0.01077847
F       3.32475455      0.24897913     -0.00583125
H      -2.52942426     -1.88748791      0.01012983
H      -3.37678540     -0.59670908      0.86925885
H      -3.35306793     -0.60591510     -0.89128439
H      -0.96204507      1.96756154      0.20501246
H      -2.60129976      1.67903357      0.33115381
H      -0.23692342     -1.65402107      0.00337656
H       0.99829981      1.21665587     -0.04326932
H       2.35658838     -1.53075570      0.03556821
