15
b3lypvtz=-212076.49941449397
C       2.58948607      0.49232408      0.18571040
C       1.29015813      0.63205563     -0.03256312
N       0.33835501     -0.32090397      0.44540473
C      -0.95432622     -0.05811120      0.31676547
N      -1.83652560     -1.07473529      0.63912532
N      -1.41543753      1.22186113     -0.01273139
N       0.83712916     -1.47925641      0.93248667
H       2.95933877     -0.34327830      0.75969526
H       3.27992795      1.21601973     -0.22218986
H       0.85286489      1.43728397     -0.59725969
H      -1.47124401     -1.99592085      0.40886087
H      -2.78409272     -0.92053173      0.33181222
H      -1.56731048      1.83389122      0.78069428
H      -2.23897525      1.21067287     -0.59926887
H       0.12065182     -1.85137089      1.55364201
