19
b3lypvtz=-192755.36733326
C      -2.91752446     -0.74086314     -0.04719670
C      -1.82889131      0.28756920      0.22483190
N      -0.54996437     -0.16660851     -0.28670763
C       0.61506934      0.55607687     -0.17211183
N       0.72618083      1.75720330      0.25524673
C       1.86193018     -0.19286390     -0.59210670
C       2.41479314     -1.08398239      0.52825395
H      -3.02373591     -0.92423434     -1.11758835
H      -2.69318991     -1.69071069      0.44332856
H      -3.87653725     -0.39014752      0.33329282
H      -1.76448379      0.48849284      1.30159402
H      -2.09084777      1.23522540     -0.25582743
H      -0.46886697     -1.14526082     -0.50289196
H      -0.16817937      2.14609960      0.54696965
H       1.65034671     -0.79620436     -1.47964820
H       2.60413432      0.55292553     -0.86916883
H       2.65748754     -0.48356541      1.40513748
H       1.69509075     -1.84705719      0.83219714
H       3.32200530     -1.59521445      0.20336734
