14
b3lypvtz=-203690.78158652
C      -2.34835924     -0.60840691      0.35292836
N      -1.26013446     -0.62002537     -0.29099067
C      -0.32473600      0.41226100     -0.11760060
C      -0.61614653      1.71061695     -0.24551482
C       1.11249940     -0.01798310      0.07783891
C       1.43755071     -1.47587008     -0.13454204
O       1.95753613      0.79067812      0.39271223
H      -2.59060370      0.15444027      1.09979111
H      -3.08284315     -1.38786581      0.16834831
H       0.17560460      2.44161361     -0.17564051
H      -1.61955419      2.04678183     -0.46625464
H       1.10309978     -1.80443204     -1.11935723
H       2.50871227     -1.62193935     -0.02359157
H       0.90033438     -2.09075311      0.59071218
