17
b3lypvtz=-171046.07699673
C       2.94865415      0.88884311     -0.01393813
C       2.09942206      0.04259154      0.03488780
C       1.05470012     -0.97791612      0.07911228
C      -0.28360399     -0.49125213     -0.45066146
C      -1.55426670     -1.17336658     -0.01427467
C      -1.24919350      0.23104723      0.44432540
C      -2.05321924      1.40224263     -0.06589040
H       3.70173390      1.63534800     -0.05377760
H       0.93358139     -1.32161231      1.11101696
H       1.38478107     -1.85010122     -0.49441941
H      -0.25077319     -0.15304043     -1.47964148
H      -1.47727154     -1.97820805      0.70542527
H      -2.33731246     -1.30933557     -0.74869332
H      -0.93517327      0.31998483      1.47875172
H      -1.48223656      2.33094654     -0.00224632
H      -2.97224137      1.53320416      0.50992953
H      -2.33633988      1.25786535     -1.11054616
