16
b3lypvtz=-204447.82691239
C       2.03911321      0.66979803      0.51996159
N       0.86775276      1.07207259      0.27664657
C      -0.19750681      0.10082303      0.03261943
C       0.07565508     -0.76158046     -1.21721171
C      -1.51012876      0.88118333     -0.14939612
C      -0.39218558     -0.86703627      1.20719721
O       0.35902044     -1.03644224      2.12770718
H       2.35412301     -0.37567790      0.54641379
H       2.80907242      1.41317915      0.71832707
H       0.15650487     -0.11246878     -2.08961362
H       1.00204924     -1.32674950     -1.11858915
H      -0.73925831     -1.46651114     -1.39105826
H      -2.35833624      0.21310333     -0.30678489
H      -1.70680264      1.50415014      0.72310514
H      -1.41981383      1.53667347     -1.01493009
H      -1.33895887     -1.44461678      1.13550586
