13
b3lypvtz=-213797.85454411
C       2.04872248     -0.10842365      0.01736520
C       0.55422685     -0.16571082     -0.01624862
N      -0.13466303     -1.22563189     -0.19321931
C      -1.53986687     -0.82517864     -0.15463024
C      -1.55705284      0.68511499      0.08091661
O      -2.48181423      1.45306188      0.18511221
N      -0.20597947      0.99653189      0.15238861
H       2.41501589      0.90433502      0.17895022
H       2.45402826     -0.48131873     -0.92274589
H       2.42558175     -0.74809850      0.81481970
H      -2.04671891     -1.07044153     -1.09044944
H      -2.07670364     -1.34147547      0.64415829
H       0.14522377      1.92723547      0.30358268
