16
b3lypvtz=-202027.07070081847
C      -2.94120832      0.60065087     -0.36665167
N      -1.55862870      0.91986276     -0.03213124
C      -0.75818480     -0.07025760      0.49429698
N       0.52141128     -0.15162812      0.26638023
C       1.53137251     -0.91951199      0.80376254
C       2.77972339     -0.70079906      0.19696492
N       2.90502199      0.13781885     -0.79615380
H      -3.47293168      1.52157596     -0.59881085
H      -3.03697286     -0.08882643     -1.21351882
H      -3.42508432      0.14703047      0.49891762
H      -1.09737355      1.52138525     -0.69942586
H      -1.21540683     -0.75210577      1.19812358
H       0.95547552      0.45385837     -0.45224059
H       1.32646024     -1.58377472      1.62406674
H       3.62119425     -1.26025477      0.61218263
H       3.86513189      0.22497595     -1.10470929
