16
b3lypvtz=-204457.12064773
C      -2.98831369     -0.37666645      0.03299438
C      -1.72663888     -0.79253197     -0.04703218
C      -0.52736745      0.05745013     -0.00517649
O      -0.69093495      1.41574763     -0.06121491
N       0.61515124     -0.47748100      0.09628233
C       1.80156384      0.36592021      0.14151076
C       3.05477898     -0.46299255     -0.10723897
H      -3.26438637      0.66426582      0.16092496
H      -3.81075163     -1.07723413     -0.00432692
H      -1.49755579     -1.84614459     -0.13330638
H      -1.59580600      1.62686979     -0.31489581
H       1.86082662      0.84283862      1.12647558
H       1.72977323      1.18276169     -0.58436033
H       3.94946825      0.15980017     -0.05007257
H       3.14021223     -1.26068966      0.63124636
H       3.02134137     -0.92440671     -1.09519582
