19
b3lypvtz=-192723.21677241
C       3.24688958     -0.11117864      0.08928464
N       1.92405437      0.28054032     -0.37406605
C       0.85573192     -0.57360464      0.12707765
C      -0.47807631     -0.08549272     -0.37022752
N      -1.00633742      1.11984015      0.30630462
C      -1.71458364     -0.16625295      0.43720366
C      -3.06215292     -0.36580090     -0.20696348
H       3.33603049     -0.18290708      1.18529723
H       3.98786615      0.60537703     -0.26634184
H       3.50727999     -1.08764263     -0.32579045
H       1.72627465      1.23204057     -0.08613661
H       0.83215848     -0.62459149      1.22819775
H       1.02932954     -1.59212482     -0.23600441
H      -0.59767794     -0.12827100     -1.44838401
H      -1.48974933      1.71098611     -0.36302462
H      -1.62720731     -0.58561324      1.43493133
H      -3.31220844     -1.42720409     -0.27043640
H      -3.07975235      0.04325692     -1.21962505
H      -3.84886651      0.12582407      0.36994657
