15
b3lypvtz=-193594.59925037
C       3.01912789     -0.51189047     -0.04218652
C       1.99890742      0.12677025     -0.06421875
C       0.83222551      0.93458211     -0.09945923
C      -0.42782220      0.50912131      0.08459060
C      -1.59201705      1.45041827      0.02377683
C      -0.74318042     -0.92458069      0.40529478
O      -1.85698068     -1.34273348     -0.38637922
H       3.91472303     -1.08067161     -0.02419432
H       1.00194612      1.99044511     -0.28443344
H      -2.15153399      1.43548334      0.96402727
H      -1.26961364      2.47211686     -0.17178728
H      -2.29105326      1.14239723     -0.75508780
H       0.13105703     -1.55271645      0.22232616
H      -0.99121732     -0.99318599      1.47494850
H      -2.08210044     -2.24361978     -0.13917259
