12
b3lypvtz=-226235.1769237077
C      -0.46695504      1.29249097     -0.05856282
C      -0.84213247      0.00724029      0.59446486
N       0.51194615      0.56171923      0.73964942
C       1.35884482     -0.32125367     -0.05648826
O       0.52017979     -1.22586903     -0.80622231
C      -0.75868887     -1.17115685     -0.32587478
O      -1.61184778     -1.94810818     -0.63375428
H      -0.80530560      2.21819873      0.38627792
H      -0.36144917      1.30230133     -1.13786040
H      -1.50545980     -0.04109870      1.44525458
H       1.98468827     -0.91483127      0.60956572
H       1.97617972      0.24036716     -0.75644965
