13
b3lypvtz=-190432.60691051
C      -2.91818986     -0.86971684      0.00226172
C      -1.81827218     -0.38949079     -0.00179301
C      -0.51880455      0.22671973     -0.00352376
N      -0.54149273      1.60810430      0.04983562
N       0.52150970     -0.52417744     -0.07787123
C       1.78296539      0.04310294     -0.19551670
C       2.89745792     -0.61267014      0.13695906
H      -3.88065222     -1.31774447      0.00191150
H       0.27754538      2.07453041      0.40129699
H      -1.41615989      2.04052589      0.29223711
H       1.86662175      1.04361919     -0.62371909
H       3.86781964     -0.15498741      0.01053464
H       2.84950965     -1.61304636      0.54498414
