12
b3lypvtz=-202896.1264866
C       0.08256623      1.85713154      0.47721162
C       0.15329057      0.68163620     -0.14275170
C       1.30696599     -0.15612046     -0.15273075
C       2.26979625     -0.87373106     -0.17522230
O      -0.92387595      0.25233252     -0.91498413
C      -1.58640674     -0.90029609     -0.56417696
N      -1.46987608     -1.62271639      0.45391484
H      -0.82373666      2.44311744      0.43673332
H       0.93605393      2.24521681      1.01113155
H       3.12308930     -1.50540062     -0.19347552
H      -2.30634133     -1.12602705     -1.34415192
H      -0.76152553     -1.29514283      1.10850196
