18
b3lypvtz=-205203.74776011
C       3.01762120      0.77563392      0.03105806
O       2.54007686     -0.51218236     -0.32223057
C       1.22028834     -0.76191720     -0.12492736
C       0.28591590      0.04802176      0.37254427
C      -1.14939317     -0.36213476      0.53237288
C      -2.11031030      0.45559754     -0.33706705
N      -3.50123930      0.08842211     -0.05316944
H       2.86896706      0.97319251      1.09665633
H       2.51586995      1.55573904     -0.54906934
H       4.08103040      0.78132572     -0.19472324
H       0.98769461     -1.77441069     -0.43378550
H       0.54024228      1.05640865      0.67647095
H      -1.26010895     -1.42351406      0.28787993
H      -1.46764677     -0.24951350      1.57319005
H      -1.82208155      0.33522397     -1.39091158
H      -1.99172295      1.51610261     -0.09905654
H      -4.13798344      0.67320919     -0.58116337
H      -3.67886016     -0.86600846     -0.34633547
