15
b3lypvtz=-216943.88995183
C      -2.99420138     -0.34081511      0.00000116
C      -1.73107621     -0.74926790      0.00000727
C      -0.60960969      0.22300414      0.00000568
O      -0.71942219      1.42579011     -0.00000212
O       0.57656392     -0.42193888      0.00000610
C       1.75694612      0.41200703     -0.00000145
C       2.96450765     -0.49846410      0.00001450
H      -3.22806107      0.71589058     -0.00000414
H      -3.81613764     -1.04349632      0.00000145
H      -1.46514116     -1.79780759      0.00001287
H       1.72936073      1.05584359      0.87972536
H       1.72936580      1.05581943     -0.87974623
H       3.87672327      0.09992105      0.00000786
H       2.97375746     -1.13608092     -0.88421842
H       2.97375340     -1.13605509      0.88426610
