15
b3lypvtz=-242829.86657324
C      -2.17208847     -0.10154040     -0.73360674
N      -1.42707549     -0.69644365      0.36951470
C      -0.50094139      0.19564255      1.05635465
C       0.59416160      0.75968284      0.15691599
O       0.68737654      1.93048676     -0.12994124
C       1.59500481     -0.20955497     -0.46434499
F       1.45012324     -1.51237045      0.00822195
H      -2.84898761     -0.84954589     -1.14600321
H      -2.77872775      0.72399984     -0.35695142
H      -1.55734545      0.29153404     -1.55662843
H      -0.95738177     -1.54491758      0.08513907
H      -1.04699930      1.04636268      1.46639820
H      -0.04211440     -0.35229446      1.88219535
H       2.60447890      0.13170111     -0.23051374
H       1.46729853     -0.21668642     -1.54898414
