16
b3lypvtz=-204430.8219202
C       2.41132274      0.53180569     -0.58636727
C       0.93654997      0.45916054     -0.32883115
C       0.28764958     -0.62901450      0.08340548
N      -1.10817601     -0.76899968      0.34952228
C      -2.08528305     -0.05059170     -0.47645774
C      -1.85740840      0.35166559      0.92874436
O       0.93628854     -1.80892103      0.31147240
H       2.62178298      0.81763895     -1.62115861
H       2.89225160     -0.42595505     -0.39829785
H       2.89083880      1.28075970      0.05087154
H       0.35697356      1.35947105     -0.48976070
H      -1.69412558      0.59164997     -1.25534340
H      -2.96489776     -0.62267534     -0.74408977
H      -1.31081271      1.26858937      1.10925183
H      -2.56895610      0.07608952      1.69712085
H       0.25600184     -2.43067307      0.59808909
