13
b3lypvtz=-213772.5502434
C      -1.97221246     -0.19634462     -0.05298701
C      -0.48742290     -0.32507059      0.00542348
C       0.45689674      0.67965341      0.31998922
C       1.69278473      0.07878901      0.24025060
N       1.44074010     -1.21382818     -0.10860194
N       0.13375402     -1.47367815     -0.25224271
O       0.11277443      1.96691818      0.62533529
H      -2.37692168      0.15636885      0.89807784
H      -2.27996017      0.52008656     -0.81807928
H      -2.41616209     -1.16297525     -0.28456637
H       2.68984563      0.45393802      0.39485146
H       2.10620037     -1.95196437     -0.24542861
H       0.89968329      2.46810711      0.85759759
