14
b3lypvtz=-226989.03632123
O       1.07570869      1.53017662      0.41358430
C       0.68414738      0.45416853      0.00612436
C       1.55105136     -0.78852141      0.14026193
O       2.75564741     -0.49026346      0.79244820
N      -0.50270831      0.28877464     -0.67931605
C      -1.62945515     -0.52452166     -0.25562064
C      -1.72942916      0.96749781     -0.33860098
H       0.99453697     -1.55393404      0.69511999
H       1.73243225     -1.19081921     -0.86333977
H       2.73484861      0.46589747      0.95541814
H      -2.08138024     -1.14265811     -1.02091116
H      -1.58761565     -0.96789259      0.73253412
H      -2.26065631      1.42228503     -1.16462006
H      -1.73732784      1.52991035      0.58691762
