11
b3lypvtz=-210587.48775618
N       2.89494221     -0.58082933     -0.00065945
C       1.92330435      0.04412005      0.00236909
C       0.80059156      0.89969447      0.00971327
C      -0.48531090      0.46266335     -0.00520622
N      -1.58865123      1.24571562     -0.03254397
N      -0.66775685     -0.95329858     -0.02036699
N      -1.86165242     -1.29630446      0.02339643
H       1.00774671      1.96195436      0.02484170
H      -2.46929051      0.77699536      0.11066480
H      -1.52363768      2.22517823      0.17381970
H      -1.87972225     -2.32291908      0.01068265
