14
b3lypvtz=-203652.66669872
C      -1.23845271     -0.86302883      0.01183496
N      -1.60405236      0.50299428     -0.46037898
C      -0.44187985      1.28415708     -0.41471294
C       0.66200981      0.53146749     -0.46833601
C       1.86559595      0.30291309      0.40491301
O       1.23230461     -0.93841137      0.88321558
C       0.28018453     -0.90032991     -0.23851509
H      -1.76861508     -1.62288843     -0.56031198
H      -1.46205447     -0.99822396      1.07554600
H      -2.42577039      0.91843998     -0.05173907
H      -0.52878537      2.35606950     -0.30423195
H       2.05491988      1.01693361      1.20748817
H       2.80061366      0.06306027     -0.10934884
H       0.57378179     -1.65305280     -0.97552285
