12
b3lypvtz=-223801.78263996
C      -1.58702178      0.47814963      0.16097032
C      -0.61605758     -0.68857731     -0.06445379
C       0.80436385     -0.24925985     -0.12353074
N       1.48220120      0.30261901      0.95592362
N       2.64336765      0.57425054      0.58831331
O       2.76151184      0.20681747     -0.75747159
N       1.57489457     -0.30920861     -1.16589951
H      -1.53647109      1.19253904     -0.66123136
H      -1.35617711      1.00568742      1.08605178
H      -2.60961717      0.10723538      0.22684655
H      -0.84645047     -1.20847083     -0.99359860
H      -0.71454392     -1.41178188      0.74807999
