15
b3lypvtz=-216899.45635112
C      -2.89181625      0.40302468     -0.65253834
C      -2.26866359     -0.58043591     -0.01217387
O      -0.99046920     -0.59306273      0.45860312
C      -0.29860375      0.59138102      0.50421558
C       1.01335164      0.64900051      0.28950741
O       1.76167784     -0.43207427     -0.04124522
C       3.08168788     -0.14124283     -0.47938740
H      -3.91783067      0.25992290     -0.95522749
H      -2.41492446      1.33782131     -0.90591279
H      -2.74513552     -1.52721979      0.20377631
H      -0.85491247      1.47038008      0.80007011
H       1.53040254      1.59384466      0.41597259
H       3.63578570      0.41842368      0.28004165
H       3.07278231      0.42839710     -1.41266733
H       3.57224802     -1.09659342     -0.64732332
