14
b3lypvtz=-203657.86116567298
C      -2.34452254      0.09341848     -0.75425486
C      -1.14974022      0.46969645     -0.31300606
C      -0.11562704     -0.45911435      0.22034021
C       1.30793591     -0.24933228     -0.24417918
C       1.69883696      0.13877728      0.97459416
N       0.40935075     -0.09653707      1.60447218
O       1.84115275     -0.54565958     -1.45044834
H      -3.05807124      0.80923319     -1.14022792
H      -2.64596189     -0.94727171     -0.75345394
H      -0.86705959      1.51898534     -0.33453638
H      -0.45468740     -1.49582159      0.19555786
H       2.61586104      0.42120877      1.46939453
H      -0.03260905      0.75344654      1.95077278
H       2.79514155     -0.41102947     -1.42502505
