17
b3lypvtz=-191971.99924625
C       0.04040333      2.37079718      0.10546072
N       0.65762480      1.28946380     -0.14314484
C       0.01708281      0.04205202     -0.05253237
C       0.77609256     -1.07170682      0.00164262
C       2.27034469     -1.09928002      0.03399716
N      -1.38359382      0.04439736      0.01983203
C      -2.10881030     -1.21117525      0.02669221
H      -0.99609057      2.42494005      0.44691075
H       0.57904782      3.30898219      0.00176678
H       0.27467236     -2.02822138      0.06531506
H       2.64214630     -1.45264118      1.00178107
H       2.66062172     -1.79086471     -0.71811833
H       2.68663017     -0.11154444     -0.14714664
H      -1.79242750      0.72272355     -0.60729564
H      -3.17700129     -0.99861504      0.01666146
H      -1.88649117     -1.76671909      0.93890814
H      -1.87496690     -1.85939520     -0.82873019
