11
b3lypvtz=-212980.9597366
C       3.25847751      0.22260877     -0.48473986
C       2.08127752     -0.00450696     -0.40096613
C       0.70985807     -0.35992394     -0.30867902
N      -0.20617194      0.52163577     -0.18839151
C      -1.54316972      0.05190253     -0.10616431
N      -1.88279522     -1.16337381     -0.14423895
O      -2.40561762      1.08564301      0.01900367
H       4.29515747      0.44209039     -0.55769925
H       0.46221352     -1.42321750     -0.34473903
H      -2.89090446     -1.26922780     -0.06886496
H      -1.87832514      1.89636956      0.02002829
