14
b3lypvtz=-229577.40727235
C      -2.64019939      0.17941131      0.46849686
C      -1.16746732      0.35235175      0.25826914
C      -0.26844458     -0.61045096      0.40662310
F      -0.60796722     -1.86907338      0.77105551
N       1.10903677     -0.57091607      0.24124999
N       1.73481651      0.55541935     -0.12122299
C       3.00138806      0.53989206     -0.26016228
H      -2.88936931     -0.83942207      0.76018891
H      -3.01004274      0.85095936      1.24825090
H      -3.19974089      0.41359500     -0.44137362
H      -0.78261151      1.31833289     -0.03522948
H       1.62172785     -1.42922869      0.40602805
H       3.48611311      1.45983453     -0.55321513
H       3.61276066     -0.35060507     -0.09845896
