16
b3lypvtz=-204446.54548157
C       2.55319308      0.73554587     -0.05884496
C       1.36986625     -0.17779600     -0.15504727
N       1.41831332     -1.29652881     -0.74078221
O       0.29006304      0.39047315      0.47640954
C      -0.90302217     -0.35401546      0.53645355
C      -2.15292455      0.44631303      0.66004689
C      -1.85662317     -0.29873139     -0.62207534
H       3.40121779      0.28842520     -0.56799513
H       2.80432584      0.91752761      0.98723751
H       2.31962660      1.70183888     -0.50869946
H       0.52457642     -1.78192816     -0.72850504
H      -0.81305964     -1.27555025      1.10018660
H      -2.03971391      1.52082331      0.64568196
H      -2.93253653      0.07719948      1.31099363
H      -2.43215377     -1.18285466     -0.85932077
H      -1.55114854      0.28925819     -1.47573950
