15
b3lypvtz=-219541.76733263
C      -1.72025767     -1.47642103     -0.14553028
C      -0.62231816     -0.40845084     -0.27711775
C      -1.18413837      0.93310165     -0.09431767
N      -1.62326148      1.98374247      0.07277341
C       0.53975363     -0.64860627      0.70923895
C       1.72580245      0.26852805      0.49864055
F       2.26970643      0.04803031     -0.77126715
H      -2.14526684     -1.47626261      0.85855313
H      -1.29807323     -2.46215316     -0.34152937
H      -2.52654650     -1.29969649     -0.85593033
H      -0.21438438     -0.44402788     -1.29039149
H       0.86976302     -1.68362808      0.59860689
H       0.18302268     -0.52897417      1.73551892
H       1.44351217      1.32135867      0.55567464
H       2.50942423      0.06692137      1.23055757
