12
b3lypvtz=-249736.9508962
N      -1.27265858      0.49028416     -1.37546257
C      -1.14719926     -0.20455629     -0.19225713
N      -2.06811246     -0.73272104      0.51529873
C       0.25836392     -0.36423930      0.25241247
F       0.44984927     -1.18715169      1.30009081
N       1.22626603      0.23572124     -0.29636388
N       2.49794964     -0.01640946      0.13067518
H      -0.46514006      1.00947590     -1.68020265
H      -2.16754332      0.90588368     -1.56921377
H      -2.98864433     -0.56447013      0.11168008
H       2.57586622     -0.33362421      1.09018084
H       3.10110293      0.76190715     -0.08103811
