20
b3lypvtz=-205980.38521815
C       2.27754995     -0.17127057     -0.10092182
C       0.82118546     -0.38958558      0.32389797
N       0.35756249     -1.76309587      0.01942306
C      -0.16374675      0.63464121     -0.28229072
C       0.26611463      2.08074514     -0.00814528
C      -1.59912059      0.43030399      0.23501224
O      -2.21561962     -0.76925141     -0.18879481
H       2.67643072      0.77990809      0.25166013
H       2.91023697     -0.96381081      0.30424340
H       2.37043491     -0.19343808     -1.19047538
H       0.76175669     -0.28875913      1.41314510
H       0.50654125     -1.96733632     -0.96435967
H       0.90189152     -2.44104053      0.54054032
H      -0.18659024      0.47655916     -1.36799370
H       0.35839126      2.26839053      1.06516263
H      -0.47517307      2.77859658     -0.40015021
H       1.22075127      2.32563949     -0.47145763
H      -1.58881907      0.50493796      1.33449734
H      -2.22560554      1.24645414     -0.13147196
H      -1.56183523     -1.46929400     -0.01776802
