14
b3lypvtz=-203673.81748913
C      -1.49861985      0.79084617      0.00126283
C      -0.81102495     -0.42966701     -0.55461009
C       0.29119372     -1.17069834      0.06933504
N       0.53086912     -0.36958121     -1.23187495
C       1.36260941      0.52108972     -0.44698435
O       1.96947908      1.48209539     -0.80249596
C       1.25434135     -0.28553010      0.85074254
H      -0.85844286      1.38983550      0.64665020
H      -1.84246962      1.43001129     -0.81315236
H      -2.37209163      0.48552531      0.58046962
H      -1.46657324     -1.04721565     -1.15867357
H       0.35058743     -2.24924852      0.03858636
H       2.19940250     -0.77649852      1.08150145
H       0.89073955      0.22903599      1.73924325
