16
b3lypvtz=-204479.2035658
C       1.31356634      1.37072499      0.39613851
C       1.15914077     -0.07134328     -0.00492024
C       2.46053889     -0.80944231     -0.16993778
C      -0.00099821     -0.71735038     -0.17810156
C      -1.39997828     -0.23618750     -0.00508877
N      -1.69324999      1.04546055     -0.40475483
O      -2.25303640     -0.96456991      0.47265250
H       1.74922689      1.95280104     -0.42266290
H       2.01596960      1.44789568      1.22998035
H       0.37819900      1.83596190      0.69254785
H       3.09835989     -0.30700342     -0.90322193
H       2.30945903     -1.83810104     -0.49271170
H       3.01926184     -0.82100721      0.77042195
H       0.02558285     -1.78080181     -0.38369024
H      -1.09969948      1.51204887     -1.06763871
H      -2.67137872      1.28667186     -0.41436052
