12
b3lypvtz=-223854.59418241
C       1.30522447     -0.16989700     -0.64944802
C       1.74004691      0.77465366      0.39553957
N       2.01077476      1.52961057      1.22178807
N       0.19861714     -1.02425035     -0.26961568
C      -0.91590940     -0.50060560      0.06624087
N      -1.26455778      0.81593535      0.17381042
O      -1.96802301     -1.30891312      0.32588320
H       1.07975965      0.42419838     -1.54501230
H       2.15853949     -0.80118509     -0.89924785
H      -2.15050666      0.99680558      0.61676881
H      -0.53619112      1.47340608      0.40157088
H      -1.65777444     -2.20975845      0.16172204
