14
b3lypvtz=-203674.62104011
C       2.96170924     -0.64608926      0.34022712
C       1.57635128     -0.21643862      0.25660286
C       0.43183720      0.15162332      0.18205499
C      -0.93713025      0.56026626      0.10345040
N      -1.34916024      1.71981474     -0.23202436
C      -1.98868314     -0.47558225      0.44874556
O      -3.28671176      0.03624531      0.33869664
H       3.47224656     -0.49553137     -0.61305813
H       3.49862925     -0.07504131      1.10037155
H       3.03084061     -1.70385964      0.59922116
H      -0.58439064      2.35473472     -0.44846921
H      -1.79528325     -0.83337429      1.46822099
H      -1.85018236     -1.33682733     -0.21769911
H      -3.18007253      0.96005974      0.05486882
