14
b3lypvtz=-203696.46469509
C      -3.64811808     -0.25932599     -0.00001285
C      -2.46796335      0.36864373     -0.00000439
C      -1.18426557     -0.29383077     -0.00000117
C      -0.01040670      0.35806810      0.00000482
N       1.20517345     -0.31096732      0.00001376
C       2.27871100      0.36152808      0.00002503
O       3.48872542     -0.21728488     -0.00002268
H      -4.58052663      0.28766667     -0.00004322
H      -3.71260362     -1.34071525      0.00000631
H      -2.45145154      1.45514239     -0.00000215
H      -1.16778380     -1.37837511     -0.00000050
H       0.00259283      1.45003773      0.00001342
H       2.35600533      1.44957373     -0.00007772
H       3.34551927     -1.17616212     -0.00000766
