17
b3lypvtz=-217692.9937437
C      -2.27847175      0.35625722     -0.41525044
C      -0.98566078     -0.44224450     -0.30150885
O      -0.88009472     -1.09979910      0.96456896
C       0.29083774      0.39899506     -0.45380014
C       0.46146063      1.51780610      0.57078783
C       1.49085549     -0.53303119     -0.49321735
O       2.55920831     -0.31163943      0.01135678
H      -2.33796209      0.87191165     -1.37571053
H      -2.35605697      1.09402011      0.38247047
H      -3.14203079     -0.30932210     -0.34508888
H      -0.97405170     -1.19697304     -1.10081182
H      -1.65808688     -1.64935957      1.09796972
H       0.25022772      0.82998996     -1.46481457
H       0.38403616      1.12330680      1.58268260
H      -0.29265607      2.29335534      0.44116737
H       1.44436147      1.97315429      0.46484018
H       1.32442722     -1.46765162     -1.07177033
