15
b3lypvtz=-237824.02062621
C      -1.45399868     -0.56450407      0.09829563
C      -0.16064730      0.13922795     -0.14318270
C       0.91417562     -0.02009719      0.63833437
N       2.04539757      0.81720876      0.63383454
O       0.98349877     -1.02224486      1.58193310
N      -0.19397501      1.09439592     -1.19960019
O      -1.85366113     -1.21425087     -1.12293309
H      -1.33981981     -1.28145136      0.90994311
H      -2.22011166      0.17142874      0.38042604
H       2.89343701      0.37627761      0.29677706
H       1.88714261      1.69763639      0.16560416
H       1.44505774     -0.65381146      2.34607075
H      -0.87915506      0.80243167     -1.88616275
H       0.69759432      1.16201109     -1.67471245
H      -2.76493500     -1.50425831     -1.02462758
