16
b3lypvtz=-204450.49953799
C      -2.24945524      0.28930726     -0.70096184
C      -1.08443231     -0.58941552     -0.32071557
C      -0.69748843     -0.81318916      1.09800862
C       0.21359851      0.03539169      0.22293330
N       0.23445594      1.44731513      0.47726415
C       1.46051543     -0.60735737     -0.25616433
O       2.48788272     -0.01398675     -0.48261456
H      -2.16795404      0.62151808     -1.73780773
H      -2.29234450      1.17250547     -0.06686667
H      -3.18771961     -0.26043783     -0.60002402
H      -0.92239571     -1.43481474     -0.98035688
H      -0.34823034     -1.79002678      1.40517764
H      -1.23009777     -0.25683887      1.85723118
H       0.80850558      1.64352381      1.28987724
H       0.67771426      1.92714160     -0.29902779
H       1.39089652     -1.70529103     -0.41682574
