13
b3lypvtz=-190436.19523559
C      -2.23362094      0.63263539      0.12594422
N      -0.77594715      0.65887601      0.13325896
C      -0.19123894     -0.58322635     -0.36112988
C       1.26339392     -0.52477765     -0.38866186
C       2.46615858     -0.46991153     -0.43037725
C       3.83073694     -0.41071204     -0.47594407
N       4.98535717     -0.36023065     -0.51714859
H      -2.67396514      0.40106517     -0.85581307
H      -2.58846763     -0.11684065      0.83614174
H      -2.61021558      1.60112455      0.45197468
H      -0.43469990      1.43668084     -0.41762067
H      -0.54366874     -0.86797547     -1.36800845
H      -0.49382260     -1.39670762      0.30681710
