19
b3lypvtz=-195145.08765416
C      -2.68563244     -0.55940888     -0.21878101
C      -1.20040725     -0.69413643     -0.06628934
C      -0.30115446      0.26778498      0.14913918
C      -0.62568841      1.73235318      0.27932774
C       1.17727241     -0.03573990      0.31233472
C       1.59825065     -1.49401733      0.18861574
O       1.86901919      0.76654998     -0.66369825
H      -3.04120300      0.46371567     -0.12017487
H      -3.20635993     -1.16869657      0.52583916
H      -3.00532057     -0.92958228     -1.19733280
H      -0.84377569     -1.71447933     -0.14683049
H      -0.13117290      2.30060206     -0.50939828
H      -1.69243807      1.93534782      0.23452892
H      -0.24891581      2.12478442      1.22886503
H       1.46173922      0.31873593      1.31515268
H       1.12671519     -2.11628294      0.95028730
H       1.35241501     -1.88915462     -0.79701259
H       2.67929273     -1.57409441      0.32329734
H       2.81210214      0.71356565     -0.48174518
