10
b3lypvtz=-223062.32139711
O       1.02405283     -0.03202646     -0.30244059
C       2.21605525      0.07979317     -0.12371172
C       2.93383651      1.33590412     -0.02664058
C       4.26501178      1.30742849      0.17428301
N       4.89008988      0.10476201      0.27944074
H       5.88102035      0.01835322      0.42930204
N       4.25564270     -1.09182076      0.19423703
N       3.01442377     -1.12289938      0.00730829
H       2.39100115      2.26423173     -0.11656231
H       4.89156578      2.18507385      0.26078409
