17
b3lypvtz=-191946.96432281
C       2.00259511     -0.65365819      0.32371117
C       0.64446137     -0.39191950     -0.28755166
C      -0.15383522      0.81316081      0.28020006
C      -1.22748602     -0.19114302      0.67340666
N      -0.38899125     -1.37713492      0.21768272
C      -1.64248430     -1.02370086     -0.46709457
N      -0.55202486      1.84771782     -0.66986409
H       2.39592359     -1.61321558     -0.01504140
H       1.93972205     -0.68439451      1.41272500
H       2.71221768      0.12754056      0.04038808
H       0.70130095     -0.39133383     -1.37883231
H       0.34714106      1.20311462      1.17442999
H      -1.75041221     -0.20289899      1.62151250
H      -2.43403720     -1.74041118     -0.29084270
H      -1.60004121     -0.61434155     -1.46943692
H      -1.23847928      2.46613889     -0.25029383
H       0.24442974      2.42647943     -0.91509869
