15
b3lypvtz=-214504.61326877
C      -3.09121547      0.18010529      0.26053004
N      -2.10643346     -0.54242958     -0.08239487
N      -0.88508233      0.15799389     -0.04594267
C       0.11186334     -0.55666320     -0.37584340
C       1.48606918      0.04163419     -0.38912956
C       2.44921525     -0.76097459      0.48939601
O       1.47977787      1.39548099      0.01141046
H      -2.97919297      1.22492945      0.54812308
H      -4.07538558     -0.27369081      0.26257525
H      -0.01042186     -1.60362686     -0.65517793
H       1.84321023     -0.02429408     -1.42934203
H       3.43821285     -0.30715301      0.44205761
H       2.52544219     -1.79604168      0.15085902
H       2.11294762     -0.74945346      1.52649272
H       0.55332115      1.63973847      0.15330726
