14
b3lypvtz=-201269.29716275
N      -2.45200508     -0.39800347      0.01263878
N      -1.70979656      0.61056822      0.03411975
C      -0.34957512      0.29479451     -0.03238896
C       0.62498430      1.21657964      0.05260065
C       1.95217908      0.51733820     -0.06764582
C       1.55819030     -0.96625470      0.15042178
N       0.13349940     -0.99962601     -0.22116349
H      -3.41756293     -0.05267655      0.07621577
H       0.46091334      2.27925962      0.11059656
H       2.37440134      0.66949081     -1.06835583
H       2.70093443      0.85957880      0.64747110
H       2.14122335     -1.65370472     -0.46064791
H       1.69733188     -1.23839757      1.20363621
H      -0.44388074     -1.73115477      0.16649641
