15
b3lypvtz=-191192.61321514
C       3.20874162      0.35150125      0.25429528
C       2.36059084     -0.60831095     -0.12747926
C       0.90488652     -0.57195855     -0.08900999
C       0.18201416      0.55452898     -0.18134137
N      -1.19377015      0.66603447     -0.09999722
N      -1.98286314     -0.39138544      0.14401325
C      -3.24718270     -0.23516347      0.10247732
H       4.27724129      0.23011762      0.14138594
H       2.86816140      1.27822663      0.69984990
H       2.78433275     -1.53593047     -0.50233958
H       0.38147214     -1.51527577     -0.00557942
H       0.66093003      1.51206477     -0.34344728
H      -1.62252254      1.55149066     -0.34178420
H      -3.86999626     -1.09210810      0.31525301
H      -3.72612294      0.71874338     -0.13285839
