18
b3lypvtz=-181900.86769699
C       3.73655538      0.29191800     -0.26570066
C       2.59926523     -0.37072433     -0.04453333
C       1.29949513      0.25591379      0.11720195
C       0.16415225     -0.41109183      0.34655063
C      -1.17938930      0.22099154      0.52829623
N      -2.16021857     -0.35926131     -0.38580335
C      -3.50102497      0.18359716     -0.22108094
H       3.75630088      1.37289706     -0.33775551
H       4.68029150     -0.22307307     -0.38016471
H       2.62164711     -1.45468234      0.02258128
H       1.27225068      1.34071100      0.04783843
H       0.18140514     -1.49570283      0.40450658
H      -1.53627276      0.02414462      1.54677391
H      -1.09439711      1.31641889      0.43600998
H      -1.84643296     -0.22638255     -1.33965024
H      -4.16586923     -0.25143432     -0.96757630
H      -3.88655841     -0.08934556      0.76373160
H      -3.55753099      1.28047608     -0.30705754
