14
b3lypvtz=-180389.79654554
C      -2.68309963      0.33584440     -0.00000011
C      -1.69887442     -0.56455634     -0.00000059
C      -0.27551668     -0.26954186      0.00000467
C       0.74914585     -1.14825829      0.00000435
C       2.02417278     -0.37086437      0.00000044
N       1.64197996      1.03940738      0.00000291
C       0.36049909      1.06369519      0.00000642
H      -3.71985598      0.02948611     -0.00000046
H      -2.49346506      1.40116858      0.00000170
H      -1.95659206     -1.61895024     -0.00000445
H       0.67769463     -2.22588412     -0.00000283
H       2.65123657     -0.57729901     -0.87453374
H       2.65124344     -0.57729830      0.87452974
H      -0.17647750      2.00562286     -0.00001204
