13
b3lypvtz=-239461.03650588
O       2.70400877      0.70866588     -0.23023964
C       2.26216044     -0.39100036     -0.04632663
O       0.97581658     -0.69466662      0.17310359
C       0.05420636      0.42063869      0.17858171
C      -1.30737677     -0.11539771      0.48668694
C      -2.50616722      0.57778456      0.01001014
O      -2.06359657     -0.63080230     -0.61087779
H       2.85517997     -1.31417984     -0.03056290
H       0.07071935      0.90784118     -0.79604434
H       0.37437979      1.14033024      0.93436831
H      -1.37786455     -0.70912813      1.39387059
H      -2.40428793      1.47302656     -0.59561436
H      -3.42675121      0.50175085      0.57869637
