18
b3lypvtz=-205212.67670536
C      -2.89922481      0.34236715     -0.36523597
C      -1.54911049     -0.34221891     -0.42153068
O      -0.83202506     -0.01959060      0.76579708
C       0.42063644     -0.67475828      0.87241465
C       1.49358831     -0.09205517     -0.03280398
C       1.66896921      1.40334313      0.02257294
N       2.17503838     -0.89920594     -0.73777339
H      -2.78192214      1.42492995     -0.30659228
H      -3.47980445      0.10724402     -1.25861002
H      -3.46039685      0.01201928      0.50919017
H      -1.66653745     -1.43108948     -0.49270190
H      -0.98867470     -0.01927615     -1.30786169
H       0.33458536     -1.74445773      0.66016867
H       0.73183363     -0.55031381      1.91337033
H       1.97978999      1.70897971      1.02533207
H       0.72268623      1.90907361     -0.17365893
H       2.41585607      1.74149276     -0.69489205
H       2.88909534     -0.40332353     -1.27480201
