16
b3lypvtz=-202058.02471405
C       2.53032869     -0.51007861     -0.14321588
C       1.21021599     -0.71782758     -0.14415494
N       0.21771325      0.23030121      0.08529277
C       0.61163054      1.61494811      0.26699012
C      -1.14648680     -0.08399292     -0.03237237
N      -2.09123369      0.72249319     -0.33015020
N      -1.44241071     -1.42376296      0.18956896
H       3.18898929     -1.34024392     -0.34689804
H       2.98921990      0.44900872      0.04181978
H       0.81947851     -1.69865781     -0.36964894
H       1.42194237      1.66813918      0.99467556
H       0.95861615      2.06978262     -0.66575516
H      -0.22906205      2.18362291      0.65355640
H      -1.74707802      1.62500597     -0.63725082
H      -2.43840531     -1.57949810      0.16386316
H      -0.99491011     -1.84729301      0.98851660
