17
b3lypvtz=-194347.83674208
C       2.44542227     -0.40395864      0.04599110
C       1.29360894      0.59808756      0.15099205
C      -0.04894747     -0.06675097      0.36035661
C      -1.28631979      0.72616926     -0.00660895
C      -0.84392257     -0.44992556     -0.84529552
O      -1.99151536     -1.23127457     -0.49215071
C      -2.52817528     -0.10691005      0.26750584
H       2.30414592     -1.08192023     -0.79746810
H       3.40067480      0.10578912     -0.08878927
H       2.51817448     -1.01266204      0.94936192
H       1.48495666      1.29087980      0.97602714
H       1.25700030      1.21250341     -0.75414732
H      -0.10914651     -0.73623334      1.21478530
H      -1.26182147      1.78500754     -0.21664404
H      -0.46104663     -0.52888439     -1.85418481
H      -3.43004321      0.27477472     -0.21481544
H      -2.74304509     -0.37469164      1.30508420
