20
b3lypvtz=-182664.01510069
C      -1.85170417     -1.09895903     -0.13856852
C      -0.84741030     -0.03718456     -0.54590029
C      -0.94485115      1.37730221      0.06372849
N       0.53484482      1.42882161      0.12718310
C       0.62622849     -0.05886668     -0.01003041
C       1.69093056     -0.50186497     -1.00411638
C       0.80430059     -0.77305950      1.33018825
H      -1.93290733     -1.19418595      0.94522551
H      -1.58317346     -2.07830685     -0.54177615
H      -2.84501198     -0.85247575     -0.52120961
H      -0.81676807      0.03480208     -1.63450562
H      -1.44208899      1.37060725      1.04111656
H      -1.39707506      2.15962174     -0.54898145
H       0.91584372      1.79863255      0.99077322
H       1.60809069     -1.57078641     -1.21828169
H       2.69315773     -0.31671275     -0.60944414
H       1.59082620      0.05139453     -1.93761452
H       0.72901192     -1.85730392      1.22255543
H       1.79370154     -0.55171532      1.73858068
H       0.06111123     -0.45581329      2.06329057
