19
b3lypvtz=-192723.77139038
N       2.97905449      0.61156610      0.31622333
C       1.63683026      0.07475325      0.57325823
C       0.93138663     -0.23895811     -0.74417395
C      -0.50061545     -0.76552453     -0.58757135
C      -1.49491368      0.27100070     -0.12208260
C      -2.75615723     -0.09833212      0.55997695
N      -1.63806341      0.47448186      1.33061422
H       3.56616363     -0.10137067     -0.10353683
H       3.42683596      0.87144520      1.18729263
H       1.63634565     -0.82873135      1.20017892
H       1.07410049      0.82802770      1.12509850
H       0.93433033      0.66159452     -1.36487476
H       1.52267104     -0.98372492     -1.28773937
H      -0.84273159     -1.15675503     -1.55068192
H      -0.51701929     -1.60357596      0.11483195
H      -1.53794638      1.16257343     -0.74228027
H      -3.63480876      0.51126944      0.38622402
H      -2.96394539     -1.14021313      0.77179573
H      -1.82151729      1.45047364      1.53694659
