16
b3lypvtz=-209415.26572792
C       0.44681669      0.96513571      0.01636668
C       0.80077813     -0.30171680      0.84776604
C      -0.42855380     -0.97864366      0.17070880
C       0.32328227     -0.23112308     -0.97108162
C       1.67076705     -0.73973919     -0.37106515
C       2.24544330     -2.12409874     -0.57568676
F       1.35330956     -3.18228000     -0.38299586
H       1.25099105      1.67864398     -0.16723138
H      -0.48474265      1.46463825      0.28043878
H       1.08033070     -0.33884030      1.89968962
H      -1.39855939     -0.56035635      0.44164345
H      -0.45321565     -2.06048788      0.13506685
H       0.05018449     -0.18656578     -2.02440292
H       2.50823345     -0.05869495     -0.56442210
H       2.62648721     -2.21522266     -1.59670196
H       3.07604758     -2.28204855      0.11790752
