15
b3lypvtz=-193608.21778728
C       1.50522643      0.54854679      0.18269370
C       1.37922518     -0.77478218      0.13078337
O       0.25180129     -1.46704649     -0.19110114
C      -0.93157063     -0.72431305     -0.38871085
C      -1.55697311      0.00500958      0.76273056
C      -0.92292904      0.77453942     -0.37745869
C       0.39401277      1.49702749     -0.15978425
H       2.47024878      0.95262932      0.45573769
H       2.19113576     -1.45371057      0.35154086
H      -1.56933635     -1.24862138     -1.08544843
H      -2.63407010     -0.00897939      0.85677616
H      -1.01614057     -0.01297982      1.70003204
H      -1.60356833      1.25612652     -1.06817059
H       0.28755194      2.26421915      0.61552748
H       0.65103299      2.03704460     -1.07744390
