15
b3lypvtz=-193594.87969691
C      -2.81223148     -0.03033265     -0.43124263
C      -1.71668259      0.03054408      0.05410362
C      -0.38375028      0.11946589      0.65328544
C       0.49019823      1.24522676      0.02750048
C       1.82897389      0.54552316     -0.24795345
C       1.38691275     -0.89630290     -0.46861123
O       0.34950751     -1.10666838      0.48900411
H      -3.78161786     -0.09429218     -0.85851972
H      -0.49854269      0.26806270      1.72983352
H       0.03786684      1.59521025     -0.89918651
H       0.58103012      2.09730009      0.69853411
H       2.48499554      0.60317956      0.62195786
H       2.35546744      0.96840286     -1.10334052
H       2.16266399     -1.63621804     -0.27612771
H       1.00750660     -1.04314021     -1.48780736
