14
b3lypvtz=-201290.97511759
N      -2.72134108      0.00735973     -0.21498648
C      -1.48117860      0.06317537     -0.46010915
C      -0.34373988     -0.03239181      0.52764512
C       0.63582725     -1.21365367      0.21438373
N       1.83844657     -0.60992701     -0.38405940
C       1.71060112      0.64716847     -0.24818137
N       0.58082974      1.10759942      0.41194870
H      -2.88871102     -0.11013372      0.78834311
H      -1.17565976      0.19019643     -1.50317058
H      -0.75220173     -0.09995730      1.53806759
H       0.91200285     -1.74068075      1.13036048
H       0.19815413     -1.94612561     -0.46471874
H       2.45374012      1.36292852     -0.58058411
H       0.21123929      2.01718093      0.18095511
