18
b3lypvtz=-181886.52112359
C       1.90992146      0.47905872      0.28539058
C       0.66163983      0.05388232     -0.47235696
C       0.33677815     -1.46999427     -0.63827954
C      -1.02856076     -1.21710107      0.00441669
C      -0.72014289      0.24044585      0.19656764
N      -0.88129980     -0.65053465      1.34136216
C      -1.57240376      1.46811890      0.10336875
H       2.81332511      0.16683293     -0.24297232
H       1.95223132      1.56437999      0.40092483
H       1.95079794      0.03740912      1.28401084
H       0.65300250      0.53041224     -1.45501644
H       0.98059881     -2.16890465     -0.09764665
H       0.28838827     -1.77837260     -1.68205367
H      -1.96229480     -1.70564013     -0.24117652
H      -0.00640939     -0.91296682      1.78689231
H      -1.13610440      2.29087883      0.67677543
H      -1.67374828      1.79935843     -0.93249409
H      -2.56571929      1.27273688      0.50672408
