15
b3lypvtz=-214498.82055939
C      -0.73020826      1.98312374     -0.17285613
C      -0.68498174      0.51230570      0.11076283
C       0.53370992     -0.05860215      0.80061115
C       1.53757317     -0.58417911     -0.20420732
N       2.73508953     -0.20945500     -0.36534832
N      -1.68113841     -0.18169227     -0.27690693
O      -1.52520194     -1.55417703      0.01925624
H      -0.70246971      2.55511546      0.75820304
H       0.13920719      2.28515214     -0.76238285
H      -1.63494999      2.23900962     -0.71929160
H       1.00327281      0.70783497      1.41946391
H       0.21880313     -0.88594843      1.43998643
H       1.16105143     -1.37436532     -0.85481934
H       2.98072381      0.53264040      0.29475061
H      -2.35341693     -1.92613571     -0.29879971
