16
b3lypvtz=-181138.77693767
C      -3.40377256     -0.45998168     -0.03778349
C      -2.23893646     -0.05238921     -0.52479386
C      -1.21486046      0.74733071      0.23750677
C       0.06085637     -0.02125230      0.43192093
N       1.16885743      0.36654467     -0.05508257
C       2.30347991     -0.41786077      0.17210033
C       3.49846848     -0.06785358     -0.29742993
H      -3.70984116     -0.22580641      0.97543620
H      -4.09792491     -1.03497467     -0.63645828
H      -1.96805542     -0.30786490     -1.54490612
H      -0.97202220      1.66933167     -0.29417707
H      -1.62344406      1.01366206      1.21752377
H      -0.01880731     -0.95267464      1.01012206
H       2.17892159     -1.33486075      0.75205177
H       4.36985418     -0.68056248     -0.11638066
H       3.61809958      0.84097827     -0.87117086
