14
b3lypvtz=-227016.74643051
C       2.67093519     -0.16577439     -0.00002767
C       1.24880144     -0.70933682     -0.00003477
C       0.19060735      0.36409183     -0.00003644
O       0.43371048      1.54768327     -0.00004800
C      -1.27866592     -0.06788252     -0.00000829
N      -2.25888534      0.72368353      0.00001854
O      -1.44141918     -1.41029448     -0.00000968
H       2.85494806      0.45292852      0.87775683
H       3.39020612     -0.98467476     -0.00002449
H       2.85495749      0.45293042     -0.87780867
H       1.06060859     -1.35530012     -0.86367743
H       1.06060132     -1.35530405      0.86360300
H      -1.91808262      1.68426512      0.00001385
H      -2.39519700     -1.57762555      0.00001721
