13
b3lypvtz=-216156.5612823
C      -1.29392975      1.66909823      0.00001197
C      -0.31150897      0.76212624      0.00000418
C       1.18013562      1.01650295     -0.00000647
O       1.81706634     -0.28333551      0.00000868
C       0.81339974     -1.21148027      0.00000332
C      -0.42154056     -0.68446689      0.00000375
O      -1.58368258     -1.39551869      0.00001774
H      -1.09458674      2.73149627      0.00000499
H      -2.33802162      1.38055805      0.00003209
H       1.51442044      1.55521057      0.88759503
H       1.51441238      1.55518582     -0.88762641
H       1.12264869     -2.24347287      0.00000336
H      -2.32378600     -0.78096088     -0.00012021
