14
b3lypvtz=-203695.70151807
C      -2.54289843     -0.35521893      0.06068534
N      -1.52041480      0.65709549     -0.12357373
C      -0.19062852      0.26201854     -0.03164049
C       0.32378763     -1.00206565     -0.02182084
O       1.69817024     -0.95101337      0.00789920
C       2.04086828      0.35693671      0.03163236
C       0.94163293      1.14738029      0.00695415
H      -3.52499391      0.11188982      0.00916575
H      -2.48156193     -1.09003029     -0.74482045
H      -2.45797112     -0.89333081      1.01509891
H      -1.71004516      1.51561066      0.36923091
H      -0.11164422     -1.98249353     -0.04758579
H       3.09416360      0.57219286      0.06257292
H       0.92225141      2.22431522      0.00317076
