15
b3lypvtz=-212095.34654232
C       3.14529558     -0.63866299      0.16080743
N       1.78338919     -0.38658617     -0.26766819
C       1.19418712      0.83054269     -0.05910655
C      -0.13443279      1.06018755      0.03150257
N      -1.02062898     -0.00598640     -0.01057948
N      -2.22975365      0.31155519      0.04080787
N      -3.06200678     -0.76692678      0.09173638
H       3.51697335     -1.54492465     -0.31644969
H       3.78464664      0.18767859     -0.15311789
H       3.24812653     -0.75267126      1.24736579
H       1.14408797     -1.16493384     -0.20576470
H       1.87854195      1.66838523     -0.00497252
H      -0.52227094      2.06695699      0.12707702
H      -3.96578780     -0.54414748     -0.29493610
H      -2.64667840     -1.62892967     -0.25194194
