12
b3lypvtz=-252141.58141951
N      -1.55397456      1.38564818      0.02523328
C      -1.50743440      0.12123671      0.00475730
N      -2.52838583     -0.79892892     -0.07235239
O      -0.31870349     -0.55635951      0.00950114
C       0.84369348      0.17992998     -0.01214815
C       2.00120575     -0.45807581      0.01123689
F       3.15926698      0.23239329     -0.01122697
H      -2.50444873      1.73668154      0.00143935
H      -2.29147406     -1.74379444      0.18255333
H      -3.43237026     -0.48859017      0.23826982
H       0.73436900      1.25250809     -0.04578357
H       2.13278210     -1.52954495      0.04749696
