15
b3lypvtz=-216936.22529384
C      -2.96107578     -0.58878865     -0.00002236
C      -1.76574010      0.36229503      0.00001501
C      -0.43205635     -0.37653040      0.00006303
C       0.77220929      0.52431776      0.00007191
O       0.73869447      1.73363095     -0.00000819
C       2.15831113     -0.13928977      0.00002780
O       2.33037123     -1.32847270     -0.00012115
H      -2.95665097     -1.23432863     -0.88109255
H      -2.95671351     -1.23432147      0.88105332
H      -3.90122167     -0.03597280     -0.00005786
H      -1.81023225      1.02020781      0.87038129
H      -1.81016972      1.02019688     -0.87036244
H      -0.34072809     -1.04546915     -0.86355051
H      -0.34077837     -1.04546381      0.86368612
H       2.98693970      0.59492994     -0.00009242
