11
b3lypvtz=-212978.66133255
C       2.54182773     -0.22230433      0.20638734
N       1.63438587      0.52101788     -0.27178002
C       0.29321810      0.18281558     -0.10298263
C      -0.34682746     -1.02150487     -0.12822926
O      -1.66886039     -0.84709576      0.00656704
N      -1.93696270      0.52098959      0.13773908
C      -0.77908043      1.11053818      0.05139715
H       3.58105275      0.03516750      0.02342167
H       2.34042244     -1.11414285      0.80856419
H      -0.01016089     -2.03218229     -0.28271822
H      -0.71772402      2.18553936      0.11371466
