18
b3lypvtz=-202789.75362828
C       2.71327281     -0.67889090     -0.16647407
C       1.19202949     -0.82587766     -0.14664279
C       0.44686605      0.35752023      0.49741349
C       0.61495086      1.67115110     -0.26488845
N      -0.97349254      0.05741052      0.69270687
N      -1.76829822     -0.01466879     -0.37169092
N      -2.84438305     -0.62072469     -0.16432950
H       3.18299591     -1.58252221     -0.55703900
H       3.03589911      0.15312808     -0.79307185
H       3.10871297     -0.51161589      0.83851144
H       0.81067094     -0.96080633     -1.16231824
H       0.92588431     -1.73234257      0.40460378
H       0.83770266      0.49591440      1.50961243
H       0.24054960      1.57859318     -1.28362719
H       1.66492897      1.95843455     -0.30633050
H       0.06162274      2.46949581      0.22908855
H      -1.24534942     -0.54471069      1.46678742
H      -3.36935719     -0.56022912     -1.03824148
