14
b3lypvtz=-203698.79968295
C       2.33704890     -0.86968821      0.16745628
C       1.05330037     -0.97396792     -0.18612236
C       0.01818968      0.04931956     -0.06258182
C       0.35667456      1.47519434     -0.08873523
O      -0.42776116      2.39553691      0.05241594
C      -1.30862910     -0.25559633      0.02245957
N      -1.85887263     -1.48558548      0.07574316
H       3.03018746     -1.67994154     -0.01192902
H       2.73831489      0.01435017      0.64523842
H       0.74194749     -1.91176167     -0.64319765
H       1.42626664      1.68860210     -0.27611883
H      -2.00856107      0.57085552      0.05055565
H      -2.85153177     -1.59630959      0.15992540
H      -1.29336825     -2.31003485      0.17009550
