15
b3lypvtz=-191197.11977483
C      -0.32981347      1.40143582      0.10300061
N      -1.46535259      0.85210329      0.23185432
C      -1.55247870     -0.56370597     -0.14350895
C      -0.28516725     -1.35142035      0.16918306
N       0.89690924     -0.73530352     -0.46667199
C       1.81680376     -0.03841224      0.42957689
C       0.87984024      0.72720967     -0.43856313
H      -0.24349853      2.45960122      0.35498000
H      -1.78499211     -0.61721362     -1.21207410
H      -2.40099770     -1.00137206      0.38335284
H      -0.16636100     -1.39808166      1.25717429
H      -0.36917861     -2.37707238     -0.19484028
H       1.60564282     -0.06656051      1.49364900
H       2.86611854     -0.09445735      0.16664576
H       1.29030235      1.20371967     -1.32535634
