15
b3lypvtz=-191166.77563805
N       2.52376582     -0.94950267     -0.44408672
C       1.81182176      0.02065827     -0.05038763
C       0.32957874      0.03734805      0.02907615
C      -0.56910354     -0.03899404      1.30287141
C      -1.49255211     -0.08675386      0.06807140
C      -0.67958790      1.08126041     -0.54357230
N      -0.51767083     -1.09688652     -0.52960642
H       1.92356976     -1.74053464     -0.69634538
H       2.31492327      0.93715778      0.26905739
H      -0.61543245      0.85074955      1.92623981
H      -0.48323506     -0.96244241      1.86936026
H      -2.56640526     -0.25474069      0.03772912
H      -0.70067231      1.16547575     -1.63066039
H      -0.73560791      2.05697940     -0.05823121
H      -0.54349199     -1.01967440     -1.54961550
