12
b3lypvtz=-223824.94231409
N      -2.33641607      0.20310827      0.53192884
C      -1.52451789     -0.78784007      0.12907218
N      -0.27343791     -0.69757823     -0.20296533
N       0.17727794      0.60813376     -0.10211262
C       1.40973907      0.80413360     -0.39956072
C       2.40128706     -0.20663093     -0.83720291
O       3.54481824      0.10809119     -1.08787244
H      -3.29659550      0.02987850      0.75872934
H      -1.96230598      1.13598226      0.58625637
H      -1.96856416     -1.77574332      0.07885811
H       1.78045232      1.82220196     -0.32794996
H       2.04826288     -1.24373698     -0.92138086
