16
b3lypvtz=-204424.0427722
C       3.60407722      0.34386406     -0.00000092
C       2.30427473     -0.40036374     -0.00000135
C       1.12067194      0.19755066      0.00000126
O      -0.04531569     -0.52911215      0.00000165
N      -1.17136455      0.31192079      0.00000039
C      -2.24610440     -0.36333312     -0.00000026
C      -3.56428320      0.33298397     -0.00000173
H       3.44609131      1.42331438      0.00000030
H       4.20756344      0.09521359      0.87759597
H       4.20756286      0.09521548     -0.87759873
H       2.33765864     -1.48444644     -0.00000362
H       0.97265560      1.26940947      0.00000356
H      -2.21154173     -1.45214458     -0.00000011
H      -3.42811400      1.41257180     -0.00000168
H      -4.14881560      0.04795583     -0.87835324
H      -4.14881757      0.04795599      0.87834851
