19
b3lypvtz=-218448.02679102
C      -2.37857625      0.91835390     -0.41947236
C      -1.01691900      0.97001172      0.27254528
C      -0.01753901     -0.07530013     -0.21976031
C      -0.43367741     -1.51158051      0.09057746
O       1.22944671      0.24964279      0.40230572
C       2.37370926     -0.35727976     -0.15811703
O       3.50664102      0.34511221      0.24750608
H      -2.91155832     -0.01012876     -0.21105039
H      -2.27804985      1.00819275     -1.50369685
H      -3.01146846      1.73903881     -0.07992119
H      -0.56296247      1.95093809      0.11735013
H      -1.13639660      0.85202593      1.35284566
H       0.09896084      0.03427733     -1.30882207
H       0.29611807     -2.22820692     -0.28762091
H      -1.39221676     -1.75027216     -0.37081162
H      -0.52265015     -1.65188790      1.16945629
H       2.26820772     -0.37552258     -1.25529554
H       2.51150416     -1.37888670      0.20723825
H       3.37742647      1.27147187      0.01493442
