17
b3lypvtz=-191995.09837199
C       2.56013342      0.17071514      0.57053923
C       1.65244255     -0.27835205     -0.58339282
C       0.19447098     -0.18787343     -0.24901485
N      -0.55401826     -1.19949526     -0.03057961
C      -1.88133865     -0.67599714      0.33324423
C      -1.85143245      0.82765643     -0.03420363
N      -0.40206576      1.06362402     -0.08416370
H       3.60960188      0.09180708      0.28462575
H       2.39939664     -0.45539551      1.44865995
H       2.36308497      1.20434244      0.85559462
H       1.85838539      0.33133504     -1.46927659
H       1.85934189     -1.31440218     -0.84540492
H      -2.66881229     -1.22402371     -0.18378003
H      -2.03643354     -0.81717652      1.40742206
H      -2.33686478      1.46142153      0.70708753
H      -2.31898465      1.01248918     -1.00766931
H      -0.06525435      1.81920093     -0.66106590
