16
b3lypvtz=-227783.50572854
C      -0.73643108      1.93294890     -0.09029199
C      -0.00114611      0.61937571     -0.34994633
C       1.33434819      0.59353696      0.39768993
O       2.16726058     -0.44530324     -0.13649896
C      -0.90362907     -0.58462860     -0.01811045
N      -0.30804269     -1.80143504     -0.13246095
O      -2.07483329     -0.45501340      0.29208211
H      -0.92827647      2.07382927      0.97429939
H      -0.14784587      2.77768731     -0.45098508
H      -1.70114926      1.93676519     -0.59103194
H       0.23908846      0.54687366     -1.41602660
H       1.82696820      1.56216383      0.27089571
H       1.16283368      0.43696522      1.46864562
H       2.98079200     -0.48564746      0.37411583
H      -0.84361901     -2.61083047      0.13133340
H       0.68961773     -1.86860385     -0.25673468
