14
b3lypvtz=-224597.69001033
C       1.12149638      0.07984418      0.02511817
H       0.72169456      0.52108220     -0.89495196
H       0.72107019     -0.93662172      0.11148264
H       0.73610124      0.65853966      0.86315976
N       2.57621426      0.09947667      0.05440676
C       3.18257186     -0.53224892     -0.86106552
H       2.59947402     -1.06751066     -1.63731414
N       4.55738128     -0.57471196     -0.92209811
C       5.16597345     -1.21383327     -1.84385503
N       4.63663310     -1.93384511     -2.88040166
H       5.20574297     -2.40380663     -3.55875896
H       3.64234880     -2.00684984     -2.98477576
O       6.51980962     -1.18264482     -1.80049658
H       6.90898827     -1.68466978     -2.52364962
