15
b3lypvtz=-191180.15019928
C       1.40694867     -1.23830712     -0.10787577
C       0.34084497     -0.18638390      0.00742539
C      -0.96807078     -0.29016132      0.83132117
N      -1.38954114      0.95867938      0.02913750
C      -0.61574808      0.27931225     -1.11991804
C      -0.26646646      1.80035949      0.47762373
N       0.83285740      1.16846444      0.49176551
H       0.99029897     -2.18347233     -0.45974502
H       1.88190057     -1.41014334      0.85923795
H       2.18233694     -0.92190374     -0.80723364
H      -1.61356952     -1.13017036      0.57974189
H      -0.90973895     -0.14136153      1.90861591
H      -0.22645698      0.96216002     -1.87369677
H      -1.22596970     -0.50292947     -1.56854616
H      -0.41962591      2.83595752      0.75214635
