17
b3lypvtz=-191976.48109462
C      -1.25847258     -1.72873183     -0.21168248
C      -0.62545969     -0.56042275     -0.07755593
C      -1.44019909      0.64641550      0.21110647
N      -1.09718414      1.86830878      0.18387872
C       0.89017215     -0.48722620     -0.17095352
C       1.52729708     -0.22093644      1.19814172
N       1.30296937      0.57310508     -1.10659682
H      -2.33268261     -1.80152751     -0.09591915
H      -0.72851243     -2.64493582     -0.43902697
H      -2.47899707      0.42061621      0.46938841
H      -0.12176848      1.94983112     -0.11206544
H       1.23104577     -1.47732604     -0.50096035
H       1.19428853      0.72918710      1.61360860
H       2.61546316     -0.19040152      1.10716911
H       1.27064834     -1.01537302      1.89838055
H       0.96234522      0.38028235     -2.04154862
H       2.31388744      0.61994801     -1.15832830
