19
b3lypvtz=-192729.28947024
C       2.98478281      0.89083592      0.09022368
C       2.51388506     -0.53241333      0.01042153
N       1.30014429     -0.91807325     -0.09259056
N       0.31289581      0.02051886     -0.16849524
C      -1.01876104     -0.47937744      0.14989727
C      -2.08466615      0.55267384     -0.20026726
C      -3.49730243      0.06418938      0.11550303
H       4.07122759      0.94107856      0.12483285
H       2.60291846      1.39874244      0.98382649
H       2.64108699      1.46678353     -0.77494365
H       3.24974734     -1.32819877      0.01904237
H       0.52497007      0.90986378      0.27413611
H      -1.10530748     -0.76143844      1.20890051
H      -1.16369778     -1.38987373     -0.43256956
H      -1.99875105      0.80187714     -1.26052729
H      -1.88952609      1.47848242      0.35180250
H      -4.24179009      0.82002938     -0.13700971
H      -3.60931748     -0.17010240      1.17624576
H      -3.73737684     -0.83899690     -0.44923580
