17
b3lypvtz=-240972.17508323
C      -3.02049101     -0.77403117     -0.12438552
O      -1.91599601     -0.12545830      0.47156857
C      -1.11054049      0.55389648     -0.47032155
O      -0.02518478      1.12577431      0.17221446
C       0.98448160      0.20865768      0.59916818
C       2.09995236      0.10491201     -0.43653285
O       3.15120301     -0.74490505      0.00692907
H      -3.56945220     -1.27269033      0.67136506
H      -3.68924897     -0.06108866     -0.62242924
H      -2.70300959     -1.52324651     -0.86116461
H      -1.67049742      1.37558083     -0.93114343
H      -0.79933096     -0.15618195     -1.25565993
H       0.54646746     -0.77259730      0.80496165
H       1.38967431      0.59256569      1.53511394
H       2.54505308      1.08778350     -0.58920872
H       1.69597602     -0.22703319     -1.40029717
H       2.82140760     -1.64743503      0.05250311
