18
b3lypvtz=-181881.6067706
C      -2.21046836     -0.75262270     -0.09599210
C      -2.21046838      0.75262267     -0.09599225
C      -1.02027813      0.00000007      0.44111813
C       0.27869104      0.00000011     -0.30651275
C       1.36218226     -1.05302122      0.04236297
N       2.39318537     -0.00000008     -0.12495579
C       1.36218245      1.05302123      0.04236302
H      -2.85397237     -1.26497548      0.60572408
H      -2.09828955     -1.25750266     -1.04641194
H      -2.85397243      1.26497547      0.60572389
H      -2.09828963      1.25750256     -1.04641214
H      -0.91566125      0.00000004      1.52086657
H       0.09118182      0.00000019     -1.38188044
H       1.25110821     -1.41441245      1.07241472
H       1.47333087     -1.91182385     -0.62214038
H       3.13094769     -0.00000017      0.56828190
H       1.47333118      1.91182390     -0.62214027
H       1.25110845      1.41441240      1.07241479
