16
b3lypvtz=-181105.74000714
C      -1.84997739     -0.25687076     -0.03625570
C      -0.40487716      0.10572004     -0.22891126
C       0.09000426      1.52498537     -0.30515358
C       0.61832583      0.63639647      0.79148054
C       1.65611028     -0.30981014      0.23660445
C       0.66601640     -0.82560721     -0.76987121
N       1.22867173     -1.70684994      0.25094941
H      -1.95749201     -1.24017066      0.42778039
H      -2.37824408     -0.28319515     -0.99286993
H      -2.35919776      0.46870421      0.60036814
H      -0.61980488      2.28429918      0.00220289
H       0.74923648      1.83636793     -1.10735800
H       0.45228268      0.85715364      1.83809712
H       2.70889922     -0.10521972      0.09903432
H       0.82897984     -1.08672738     -1.80694129
H       0.57106656     -1.89917589      1.00084370
