16
b3lypvtz=-204441.53272881
C      -2.27214374     -1.02598504      0.31663340
C      -1.46824178     -0.23003649     -0.38801800
C      -0.01510271     -0.11587246     -0.23321697
C       0.74700120     -1.20375896     -0.03348106
O       2.10893931     -1.07740290      0.15827844
N       0.55325890      1.15558535     -0.42903841
C       0.05331269      2.26293195      0.38228016
H      -3.32856196     -1.09329319      0.09379298
H      -1.90013920     -1.62975113      1.13454570
H      -1.89468716      0.40522282     -1.15988833
H       0.33757816     -2.20329257     -0.05381510
H       2.53643141     -1.91649921     -0.02801514
H       1.56135959      1.09939510     -0.39705399
H       0.53641035      3.18503737      0.05939283
H       0.22968872      2.13372692      1.45828584
H      -1.01944677      2.37990046      0.23274264
