14
b3lypvtz=-180348.88188617
C      -1.88262441     -1.20313932      0.42991594
C      -0.89582998     -0.39026139      0.04323164
C       0.53893554     -0.87137333     -0.09015014
N       1.39863427     -0.24733227      0.90771485
C       2.33039210      0.49597968      0.49813433
C      -1.13409492      0.97809639     -0.28223920
C      -1.28804125      2.13413492     -0.57498284
H      -1.68483354     -2.23781382      0.67540750
H      -2.90265836     -0.85522647      0.51064807
H       0.55640243     -1.94853310      0.08182725
H       0.89111636     -0.67690821     -1.11356155
H       2.52900217      0.69015057     -0.56327789
H       2.98393084      0.97764171      1.22203203
H      -1.44033124      3.15458465     -0.82377174
