17
b3lypvtz=-191979.95199384
N       3.15096793     -0.28846860      0.01453638
C       2.01627766      0.01667553      0.48530476
C       0.66064228     -0.27006054     -0.11058886
C      -0.08724299      1.00217056     -0.54084958
C      -1.54943933      0.54079082     -0.56092042
C      -1.63541562     -0.44463440      0.61857264
N      -0.23933219     -0.84260870      0.89333865
H       3.04974697     -0.79729614     -0.86823824
H       1.98018482      0.55214383      1.43733561
H       0.80014393     -0.91969404     -0.98953296
H       0.26488432      1.38333081     -1.49813100
H       0.05988485      1.78245896      0.20966246
H      -1.76024714      0.02715402     -1.50103185
H      -2.25604638      1.36516515     -0.47112078
H      -2.06583644      0.03464205      1.50216160
H      -2.26771286     -1.30332320      0.37770942
H      -0.12155981     -1.83854609      1.00189217
