18
b3lypvtz=-205209.50207846
C       2.64262703      0.12026555      0.32140074
C       1.48458173     -0.73914000     -0.16434016
O       0.40311846      0.04391088     -0.67708578
C      -0.52611995      0.50491232      0.28835298
C      -1.11100311      1.82800516     -0.20139488
C      -1.63168695     -0.51187781      0.52751695
N      -1.84511106     -1.56795797     -0.13064282
H       3.46715027     -0.51292235      0.65567112
H       3.00439227      0.76047578     -0.48355657
H       2.35112369      0.75545096      1.15938428
H       1.80812589     -1.36952443     -0.99370401
H       1.12894069     -1.40257772      0.63090565
H      -0.02322052      0.67852309      1.24943463
H      -1.56218791      1.69082334     -1.18428884
H      -0.32737950      2.58060516     -0.27976311
H      -1.87822816      2.19179560      0.48354558
H      -2.30973737     -0.26852934      1.35072391
H      -1.14069149     -1.65263621     -0.86975565
