15
b3lypvtz=-191187.99584355
C      -0.08764214     -1.32361457     -0.26176789
C       1.18282584     -0.68002266      0.29286275
C       0.86177165      0.69599667      0.77357139
N       1.75594042      0.49641621     -0.36827821
C      -0.60160077      0.95402527      0.46816919
C      -1.17071511     -0.25577430     -0.17760844
N      -0.90565174      0.95439768     -0.97937955
H      -0.36694945     -2.17110597      0.36905642
H       0.04203485     -1.70155371     -1.27862963
H       1.90557540     -1.31956657      0.78574235
H       1.29437139      1.14663764      1.65716005
H       1.23955834      0.71509375     -1.21769196
H      -1.17856027      1.58915443      1.12588145
H      -2.20106107     -0.55493066     -0.03092406
H      -1.76989733      1.45484682     -1.15816388
