19
b3lypvtz=-192723.75353146
C       1.26373890      1.63363449     -0.07431703
C       0.32547691      0.43770918     -0.00223379
C      -1.12686451      0.91568217      0.11777717
N      -2.10938041     -0.14281905     -0.12298823
C       0.54156785     -0.67954639     -1.06572553
N       0.46696205     -1.69533161      0.01556087
C       0.69424781     -0.65413430      1.04423838
H       2.30765787      1.31749557     -0.09673255
H       1.13293638      2.29045793      0.78982951
H       1.07381244      2.22699226     -0.97187619
H      -1.22665019      1.38814235      1.10757154
H      -1.29552504      1.70602423     -0.62136487
H      -3.01677924      0.11763273      0.23980105
H      -1.82824738     -1.01133813      0.31762832
H       1.52532609     -0.60247563     -1.54153035
H      -0.22779311     -0.78811298     -1.82963703
H       1.16218462     -2.42940043     -0.02489397
H       0.04851696     -0.73926790      1.92326948
H       1.73251500     -0.56694848      1.38346521
