15
b3lypvtz=-191187.08923669
C      -2.09586334      0.74208652     -0.38490691
C      -1.09160387     -0.05837857     -0.02658766
C      -1.30904193     -1.49655029      0.36468654
C       0.30934583      0.42788043      0.01007745
C       0.69522598      1.64427767      0.40196128
N       1.26253738     -0.50685543     -0.52091605
N       2.36392250     -0.51814956      0.04855577
H      -1.92614089      1.75948791     -0.70952137
H      -3.12016774      0.39271260     -0.37520494
H      -0.75225931     -2.16297118     -0.29711190
H      -2.36410402     -1.76112338      0.31657496
H      -0.94995431     -1.68576109      1.37969019
H       1.73602964      1.92965289      0.35437194
H      -0.02079912      2.36790965      0.76249891
H       2.95631820     -1.18120218     -0.47222520
