12
b3lypvtz=-200534.5958491
N       2.30509358      0.14936792      0.00000637
C       1.02551607      0.08054325     -0.00001014
C       0.18609123      1.26595717     -0.00002693
C      -1.15686623      1.15493787     -0.00000757
C      -1.75930746     -0.14688900      0.00002082
N      -1.06222794     -1.23820772      0.00001231
N       0.27367453     -1.10445099     -0.00002956
H       0.76683161     -1.98359142      0.00000183
H       2.74352248     -0.77057816      0.00001991
H       0.69792484      2.21719393     -0.00004015
H      -1.79067611      2.03180460     -0.00000940
H      -2.83298861     -0.27378944      0.00004449
