16
b3lypvtz=-202067.46138977
C       2.96762041      0.20882250      0.00003657
N       1.52189073      0.20673670      0.00000895
C       0.77352136     -0.89914225      0.00003877
N      -0.52374858     -1.00049497      0.00003900
C      -1.32314311      0.12928399      0.00001554
C      -2.79435915     -0.20764043      0.00000659
N      -0.86432949      1.33604711      0.00000253
H       3.33530844     -0.81734496      0.00008426
H       3.36146640      0.71294257     -0.88512253
H       3.36143039      0.71301124      0.88517239
H       0.97424383      1.07288247      0.00000499
H       1.33944846     -1.83114992      0.00006170
H      -3.41745436      0.68583340     -0.00000828
H      -3.03241545     -0.81394874      0.87534680
H      -3.03240008     -0.81396635     -0.87532575
H      -1.61938278      2.01584165     -0.00001154
