15
b3lypvtz=-214525.24772555
C      -2.55974421     -0.21324164     -0.00015785
O      -1.20740781     -0.65069832     -0.00011742
C      -0.24353098      0.29301622     -0.00005565
N      -0.37773841      1.55613983      0.00002689
C       1.14266862     -0.29988120     -0.00009688
C       2.27584224      0.69153542      0.00000131
N       1.25502193     -1.56433951     -0.00019768
H      -2.78757616      0.37582021      0.89220223
H      -2.78744669      0.37604959     -0.89239963
H      -3.16366277     -1.11604952     -0.00031924
H      -1.34806082      1.85801317      0.00005975
H       3.23162613      0.16865810     -0.00023850
H       2.21738704      1.34372059     -0.87161265
H       2.21759929      1.34327478      0.87196771
H       2.23987561     -1.83254674     -0.00021539
