11
b3lypvtz=-213033.02188214
C      -1.59376639      0.16429276      0.29403639
C      -1.05275100     -0.79799803     -0.54047991
N       0.26520086     -0.89030906     -0.74833952
C       1.02412832     -0.01476924     -0.11534449
C       0.48703228      0.96576851      0.73374446
N      -0.81682833      1.04874994      0.93257313
O       2.35907677     -0.06702098     -0.29270405
H      -2.66184796      0.23183868      0.45654647
H      -1.68126576     -1.51369973     -1.05702728
H       1.13567967      1.67041256      1.23948963
H       2.53534153     -0.79726541     -0.90249482
