13
b3lypvtz=-213737.55385179
C       0.94954854      1.84970808     -0.20687225
C       0.70291880      0.57690935      0.11187571
C      -0.56067097      0.10136852      0.78425366
C      -1.55871879     -0.48508102     -0.19794161
O      -2.69598449     -0.10442907     -0.29590752
N       1.73370921     -0.34240070     -0.23659596
N       1.47796568     -1.53038758      0.03245022
H       1.88029415      2.10913147     -0.69126588
H       0.24075348      2.63688757      0.00738194
H      -1.04662458      0.92001612      1.31111915
H      -0.30467431     -0.69006053      1.49480680
H      -1.17307299     -1.30580495     -0.83110372
H       2.29324428     -2.08263526     -0.26219355
