13
b3lypvtz=-213758.5289583608
C       0.10270000     -0.92651279     -0.44656653
C      -0.91612711      0.22691444     -0.63436674
N       0.15873949      1.22002072     -0.28303880
C       0.99538004      0.24293116     -0.13775093
N       2.32560190      0.30214635      0.12625072
C      -2.06875819      0.30149977      0.33043888
O      -2.47889842     -0.62197454      0.98722896
H      -0.12309242     -1.60364920      0.37611135
H       0.35680875     -1.49632582     -1.33997021
H      -1.29133019      0.36184847     -1.65503291
H       2.76939741     -0.51046868      0.51714748
H       2.68701431      1.19177168      0.43306498
H      -2.51743556      1.31179844      0.41659239
