18
b3lypvtz=-202795.43984303
N      -1.82044224      1.45009137     -0.06495226
C      -2.36488662      0.08633518     -0.03612940
C      -1.35810109     -0.93290718      0.49534615
C      -0.11165434     -1.17649197     -0.37920845
C       0.93570122     -0.10498045     -0.32840844
N       2.09704497     -0.36296013      0.12052499
N       3.04909068      0.63673727      0.06900762
H      -1.65359351      1.77852851      0.88009913
H      -2.48915349      2.08950833     -0.47770502
H      -2.63385969     -0.18174264     -1.06164926
H      -3.28523305      0.00507300      0.55990297
H      -1.04432924     -0.64641527      1.50469326
H      -1.88573153     -1.88460931      0.60352757
H       0.36533259     -2.10825706     -0.07220385
H      -0.43989221     -1.31078847     -1.41689056
H       0.66204133      0.89185460     -0.68326888
H       3.72054708      0.50091792      0.80959130
H       2.66518014      1.57921231      0.09063314
