15
b3lypvtz=-214500.28718708
C       2.72119807     -0.94497181      0.06088267
N       1.40509185     -0.37014654     -0.10195070
C       1.15339521      0.95320389     -0.01958048
C      -0.08241028      1.52236114      0.02266806
C      -1.32073053      0.79668307      0.02829791
N      -1.38586578     -0.48764408     -0.03597206
O      -2.73202896     -0.92280091      0.01025002
H       2.94081022     -1.21254197      1.10047748
H       3.47764584     -0.23413470     -0.27266035
H       2.81520015     -1.84378929     -0.54894786
H       0.58958334     -0.97138222     -0.06448249
H       2.03294541      1.58738825     -0.00329777
H      -0.14302124      2.59914030      0.05536778
H      -2.25020447      1.36112412      0.09309058
H      -2.65008883     -1.87758626     -0.06999078
