19
b3lypvtz=-195151.02953509
C       1.75838935      1.36293617     -0.20914200
C       1.08484719     -0.01116519     -0.06607644
C       1.95026485     -0.95273157      0.78624146
C      -0.29595924      0.12325603      0.51542436
C      -1.43546444     -0.22756325     -0.07943636
C      -2.79750933     -0.08285205      0.52487161
O      -1.41257821     -0.77031895     -1.34817945
H       1.17433820      2.02266278     -0.85196391
H       2.75796013      1.26570943     -0.63901745
H       1.86141691      1.85019599      0.76418058
H       0.99102781     -0.44710695     -1.06228114
H       2.06090656     -0.56672061      1.80320223
H       2.95071420     -1.05754815      0.36018909
H       1.50300504     -1.94532769      0.85331353
H      -0.37148282      0.54452257      1.51164205
H      -2.74091964      0.34973314      1.52132607
H      -3.43217144      0.56265193     -0.09115907
H      -3.29566256     -1.05478853      0.60324923
H      -2.31102256     -0.96534510     -1.62738436
