16
b3lypvtz=-227747.8502198
C      -2.98678922     -0.22740492     -0.28321594
O      -1.62699006      0.05313218     -0.53365358
C      -0.75989556     -0.43465074      0.48889349
C       0.63053081      0.01889945      0.20900086
N       0.93586228      1.42538112      0.14422383
C       1.64248380     -0.82257838     -0.02364625
O       2.90253952     -0.41422450     -0.28271414
H      -3.32673187      0.22327297      0.65833828
H      -3.17524091     -1.30750369     -0.23563594
H      -3.56328116      0.19373921     -1.10502095
H      -1.10883996     -0.04732746      1.45999998
H      -0.80325722     -1.53086545      0.53709985
H       0.81571152      1.87507463      1.04653186
H       0.30760631      1.89091815     -0.50173271
H       1.53184408     -1.89817813     -0.01750319
H       2.84969363      0.55941455     -0.29383046
