14
b3lypvtz=-229596.76598983
C      -2.17592661     -0.45578860     -0.20621129
C      -0.86091060     -0.47014640     -0.00500100
F      -0.26584095     -1.68129741      0.23226371
C       0.05499340      0.65757608      0.04574345
N      -0.59944494      1.92660654      0.02240937
C       1.40418771      0.56851321      0.03258592
N       2.20835505     -0.53247764     -0.21535736
H      -2.74406513     -1.37286789     -0.17736366
H      -2.67166408      0.47451734     -0.42752865
H      -1.13892435      2.09658495      0.86388564
H       0.05182983      2.68655841     -0.11263090
H       1.96060875      1.49472090      0.12652949
H       3.12680724     -0.48498279      0.19406763
H       1.77182067     -1.43199370     -0.09806335
