14
b3lypvtz=-203674.633766
C      -2.84287345     -0.69512115     -0.04695259
C      -1.88864683      0.20437596      0.16332149
C      -0.49193113      0.03681530     -0.27472505
N       0.29206711      1.24112837     -0.51691869
C       0.65750452      0.42675082      0.63868653
C       1.87379777     -0.41548899      0.55511074
O       2.44575976     -0.65514404     -0.48379631
H      -3.85678790     -0.53276889      0.29188219
H      -2.64386024     -1.62356739     -0.56900921
H      -2.10946519      1.13389219      0.67750360
H      -0.28964870     -0.82263147     -0.90558016
H       0.97308920      1.05944300     -1.25231153
H       0.42273148      0.84290153      1.61109583
H       2.24037661     -0.82570025      1.51539815
