13
b3lypvtz=-213738.35388872
N      -3.11666794     -0.15563412     -0.33636016
N      -1.91306160     -0.39853974     -0.11628622
C      -1.15847409      0.75272031      0.17072566
C       0.14232763      0.66175364      0.45872353
C       0.92827946     -0.60609063      0.52520122
C       2.29791590     -0.52329102     -0.10894131
O       2.78700817      0.47212682     -0.57501877
H      -3.56790346     -1.05774377     -0.53925254
H      -1.68454913      1.70227780      0.14120411
H       0.68774008      1.57657190      0.65290647
H       0.38148188     -1.44442651      0.08886807
H       1.10436928     -0.89420247      1.57247334
H       2.85810681     -1.48115220     -0.10314039
