16
b3lypvtz=-181105.28794304
C       1.02360844      0.01878978     -0.14147324
C       0.40371785     -0.49053719      1.14935731
C       0.32886908     -1.99712268      1.48587139
C       1.76510002     -2.54492237      1.49652778
C       1.93992333     -1.62922525      2.68888615
C       1.12230906     -0.39657604      2.48268310
N       0.47006538     -1.64392406      3.00709931
H       1.08308492      1.10920584     -0.13499131
H       0.42038161     -0.27094811     -1.00502407
H       2.03311497     -0.36392984     -0.29249277
H      -0.59751998     -0.07208217      1.27707924
H      -0.50566906     -2.60609122      1.15246912
H       2.39240259     -2.42096375      0.61191812
H       1.77709364     -3.58813708      1.81116136
H       2.67966042     -1.69547270      3.47521357
H       1.24155771      0.47503684      3.11301494
