11
b3lypvtz=-264614.48137744
C      -1.87163649     -0.29858284     -0.23970976
C      -0.56066126     -0.50502518     -0.27789177
O       0.26683848      0.50951063      0.21643229
C       1.58312380      0.32371300      0.18410211
N       2.18955696     -0.67861371     -0.24913400
F       2.15329214      1.41908808      0.70665923
O      -2.49541986      0.80796786      0.23471185
H      -2.55607421     -1.04765138     -0.60758206
H      -0.07228061     -1.38513434     -0.65581689
H       3.19484781     -0.58123745     -0.16480712
H      -1.83158675      1.43596532      0.54646565
