14
b3lypvtz=-203678.46065135
N       2.25231368     -0.98690560     -0.67849903
C       1.08444502     -0.59314069     -0.43021672
O      -0.01505969     -1.16793099     -1.02795490
C      -1.10918505     -0.39764619     -0.44289616
C      -0.58834926      1.04911790     -0.55280960
C       0.46605704      0.47049450      0.45299442
C      -0.72325998     -0.35925709      1.04907036
H       2.93075875     -0.44786554     -0.14761197
H      -2.05370689     -0.75508471     -0.83664589
H      -0.24038467      1.38237403     -1.52885014
H      -1.24585620      1.78353468     -0.09251613
H       1.13361219      1.08411429      1.04867686
H      -0.49819055     -1.30854916      1.53171282
H      -1.39309439      0.24674456      1.65544608
