15
b3lypvtz=-214505.3893473886
C      -0.77031097      1.25810942     -0.52947313
C      -0.98482479      0.00658572      0.27116755
N       0.17882012      0.17548246     -0.60704346
C       1.47457969      0.37260657      0.07062204
N       2.16989186     -0.84684096      0.38331626
C      -1.99109039     -0.99377145     -0.16250604
O      -2.73060732     -1.57805452      0.58866725
H      -1.36070954      1.44592242     -1.41834403
H      -0.50994305      2.14176406      0.04595857
H      -0.84358844      0.08312468      1.34529670
H       2.08648588      0.96635172     -0.61054982
H       1.34927276      0.94932278      0.99712873
H       2.28009483     -1.41803565     -0.44582243
H       1.66583517     -1.39554242      1.06918864
H      -2.01390581     -1.16702483     -1.25799450
