14
b3lypvtz=-226976.12655
O       1.61649544     -1.99046323     -0.14465656
C       1.37304537     -0.65896106     -0.06912033
O       2.51571621      0.08756849      0.03346771
C       0.16131866     -0.12011121     -0.12221924
C      -1.27318640     -0.56440691     -0.00910187
C      -1.58976896      0.95041566      0.15350698
N      -0.13774561      1.30010782     -0.03380145
H       2.47660129     -2.15442405      0.26093520
H       2.25585783      0.95695381      0.37155980
H      -1.51766404     -1.20180826      0.84068341
H      -1.69855184     -1.00928431     -0.91099850
H      -2.24996924      1.37426189     -0.60229002
H      -1.94694579      1.23898752      1.14188141
H       0.01509708      1.79116385     -0.90984654
