9
b3lypvtz=-258855.13722734
O       1.05619696      0.01506851      0.13224500
C       0.41895617     -1.03507303      0.65516502
N       0.77799741     -2.34209578      0.45890225
C      -0.12564172     -3.13523448      1.16409585
O      -0.16926087     -4.32599799      1.25775992
O      -0.97799258     -2.24650330      1.74464315
N      -0.61441230     -0.90018224      1.40775279
H       1.80688279     -0.25914422     -0.40395223
H       1.53787414     -2.71813746     -0.08031175
