14
b3lypvtz=-203724.31116218
C       2.08523587      0.00406836     -0.07899813
C       0.59935116     -0.04629559     -0.01659824
C      -0.22467276     -1.08110898      0.15636340
C      -1.65980141     -0.63454374      0.14972055
N      -1.53010458      0.79002708     -0.05095064
C      -0.22424164      1.19956661     -0.15666542
O       0.16995367      2.33684832     -0.32771699
H       2.47835797      0.66046031      0.70011631
H       2.41350945      0.42812138     -1.03008235
H       2.52681215     -0.98488174      0.03751048
H       0.05444094     -2.11663539      0.28793297
H      -2.16197260     -0.87524609      1.09386238
H      -2.22917043     -1.11543068     -0.65405686
H      -2.29779780      1.43505015     -0.11053745
