16
b3lypvtz=-204451.33138337
C      -2.24918461     -0.22416194      0.69586952
C      -1.13289221      0.67332603      0.22586094
C      -0.64821759      0.54925249     -1.23353501
C       0.65156422      0.10459925     -0.60923195
N       1.77290206     -0.23777505     -1.03360620
C       2.80242717     -0.59896712     -0.06383507
O       0.18694912      0.20797849      0.69561273
H      -2.08925664     -1.25051882      0.36276256
H      -3.20444919      0.12505929      0.29803340
H      -2.31279139     -0.22075523      1.78463033
H      -1.27872005      1.70170099      0.55820128
H      -1.14921428     -0.21380646     -1.82719448
H      -0.58741537      1.47397864     -1.80332023
H       2.50523899     -1.46339716      0.53688141
H       3.71888648     -0.84867154     -0.59510843
H       3.01417328      0.22215815      0.62717241
