18
b3lypvtz=-205198.61749365
C      -2.60988794     -0.39418324     -0.28816988
C      -1.34879157     -0.71955207      0.51669571
C      -0.07601266     -0.53027225     -0.28031104
C       0.60836151      0.81051815     -0.44455318
N       0.03978534      2.01552435      0.11058311
C       1.24844643     -0.28873783      0.37568828
O       2.33960322     -1.01733624     -0.12732039
H      -3.51129406     -0.55866274      0.30470115
H      -2.67716125     -1.02531790     -1.17669176
H      -2.60557983      0.64470143     -0.62104748
H      -1.32502713     -0.11070727      1.42515120
H      -1.38997366     -1.75637067      0.86353632
H      -0.01114184     -1.15934547     -1.16106571
H       1.05784473      0.96834594     -1.41867291
H       0.76274106      2.63768091      0.45336915
H      -0.57668584      1.81751894      0.88698469
H       1.24175114     -0.15476804      1.45627654
H       3.12696937     -0.46601700     -0.07222783
