16
b3lypvtz=-204436.34170061
C       2.23907066     -0.14173440      0.07505572
C       0.92543835     -0.29101552      0.01170592
C      -0.00758425     -1.32355497     -0.59018116
C      -1.16260123     -0.71629934      0.26620892
C      -0.21920835      0.48998759      0.64005940
N      -0.59419363      1.69410959     -0.11185001
O      -2.34931169     -0.36584023     -0.38391806
H       2.91449847     -0.83421998     -0.41227409
H       2.68971051      0.67753564      0.62302208
H       0.24045434     -2.37342114     -0.43115427
H      -0.18849613     -1.16511869     -1.65577817
H      -1.40982993     -1.33608159      1.12790212
H      -0.11659989      0.68597911      1.71004611
H      -1.00472987      2.39517818      0.49005330
H       0.20697102      2.10501689     -0.57157994
H      -2.16358837      0.49947888     -0.78731784
