16
b3lypvtz=-204452.28740033
C      -2.32734955     -0.51751449     -0.52126691
C      -0.99791566      0.02842757     -0.05666413
N      -0.85383335      1.19768692      0.44065068
C       0.12954956     -0.91416067     -0.18061702
C       1.43952567     -0.73483263      0.04320765
C       2.23807733      0.47876479      0.43395583
O       1.76935374      1.72975024      0.01853756
H      -3.12469211      0.21348662     -0.39644732
H      -2.58639698     -1.41892225      0.03901072
H      -2.27343002     -0.80362817     -1.57418484
H      -1.73145605      1.71187942      0.46398606
H      -0.17266236     -1.91479946     -0.47023033
H       2.05281490     -1.62730680     -0.05441801
H       3.23942230      0.36220572      0.00982911
H       2.37608193      0.42564239      1.53032937
H       0.82291064      1.78352079      0.27442155
