14
b3lypvtz=-226994.57670278
O      -2.66817141      1.43739251     -0.72655525
C      -2.16863122      0.32944710     -0.69817067
N      -0.86905495      0.08204817     -0.44572438
C       0.25110048      1.00048639     -0.24526807
C       1.17856305     -0.24748146     -0.13236709
O       2.19649670     -0.38128918     -1.09676994
C      -0.04568910     -1.13125044     -0.47091350
H      -2.74635644     -0.59836986     -0.86924582
H       0.46516371      1.62226016     -1.11691063
H       0.15924865      1.62919940      0.64118855
H       1.56209315     -0.40765367      0.87722389
H       2.95807842      0.14247276     -0.82944787
H       0.04283609     -1.59205291     -1.45670394
H      -0.31557713     -1.88520897      0.26956472
