18
b3lypvtz=-181886.99583451
C       3.10254278     -0.00000927      0.04721919
C       1.84496147      0.00004336      0.47475399
C       0.64312877     -0.00000439     -0.40112825
C      -0.47724495      1.04591821     -0.14533602
N      -1.48123706     -0.00003237     -0.40777374
C      -2.70150746     -0.00001600      0.36389513
C      -0.47721833     -1.04593503     -0.14524841
H       3.93702446      0.00002427      0.73598751
H       3.34172109     -0.00008775     -1.01000835
H       1.65284103      0.00012127      1.54513117
H       0.93343918     -0.00004564     -1.45121939
H      -0.47541110      1.38665684      0.90148782
H      -0.52376276      1.91668463     -0.80191326
H      -2.52266930      0.00001419      1.45374878
H      -3.29649124     -0.88156475      0.11787283
H      -3.29649624      0.88151597      0.11782508
H      -0.47537612     -1.38658599      0.90160397
H      -0.52371121     -1.91675754     -0.80175304
