18
b3lypvtz=-205206.31006327
C       3.06912065     -0.04528402      0.14130484
C       1.93684591      0.64005902      0.06389464
C       0.66993366      0.14324292     -0.57534971
C      -0.48481442      0.07183118      0.42837095
C      -1.76756074     -0.51065829     -0.15804623
N      -2.85171141     -0.45417252      0.82761140
O       0.32259931      0.94603859     -1.71502918
H       3.15503136     -1.04407922     -0.27085279
H       3.95137228      0.36224851      0.61731032
H       1.88615385      1.64211320      0.48551466
H       0.85030545     -0.85010892     -0.99257190
H      -0.16412755     -0.52934307      1.28532535
H      -0.69630250      1.07400101      0.81651612
H      -1.56077285     -1.52537980     -0.52980129
H      -2.06564806      0.08285649     -1.02272323
H      -2.66500962     -1.08818593      1.59667295
H      -3.72431903     -0.75681756      0.41167184
H       0.13890371      1.84163844     -1.40981872
