15
b3lypvtz=-191184.18012159
C       2.06696092     -1.09483927     -0.07700361
N       0.96483634     -0.70031732      0.40105249
C       0.40814482      0.52452966     -0.01676314
C       1.09426702      1.66984650     -0.05318382
N      -0.98400051      0.52973567     -0.30645262
C      -1.65547296     -0.73642002     -0.61589328
C      -1.89235407     -0.07158188      0.68429403
H       2.50688522     -2.01761593      0.29368012
H       2.60924544     -0.54606449     -0.85318248
H       2.13518348      1.71067355      0.23121744
H       0.59118929      2.58716327     -0.31810587
H      -2.39078265     -0.66737953     -1.40753506
H      -1.06622294     -1.64445296     -0.60220883
H      -1.44061795     -0.52881912      1.55575776
H      -2.80046644      0.49025587      0.86140088
