17
b3lypvtz=-194384.68033961
C      -1.54032990      1.29047236     -0.49328050
C      -1.30175138      0.02672273     -0.12518030
C      -2.40883143     -0.84172699      0.42248095
C       0.00003571     -0.64032506     -0.24309088
C       1.22377551     -0.13841814     -0.01049861
C       1.57864890      1.22309284      0.48753433
O       2.35713433     -0.89022953     -0.17961564
H      -2.51961670      1.73300130     -0.36477375
H      -0.78187776      1.90970405     -0.95048428
H      -3.36045917     -0.31239155      0.44458277
H      -2.17623127     -1.18260580      1.43464068
H      -2.53369626     -1.73937778     -0.19023428
H      -0.04786163     -1.69524082     -0.51025315
H       1.99920501      1.83335692     -0.31553081
H       0.71047331      1.73514667      0.89231647
H       2.34604239      1.13211872      1.25815031
H       2.11488134     -1.75763792     -0.52368631
