17
b3lypvtz=-191965.18589271
C      -3.28795917     -0.71876204      0.04457101
N      -2.48850294      0.26424653     -0.03226448
C      -1.11558368      0.00518676      0.03088546
C      -0.23339589      1.00406618     -0.02329860
C       1.25479847      0.86487265      0.03769939
N       1.72317324     -0.50687184     -0.07249900
C       3.16687473     -0.63773793      0.06140701
H      -4.35825745     -0.53944261     -0.00009806
H      -2.95458505     -1.75718464      0.15663458
H      -0.78619807     -1.02795506      0.14003010
H      -0.62082280      2.01273667     -0.11415467
H       1.60433929      1.26406229      0.99861425
H       1.70067157      1.53027533     -0.72433255
H       1.42340560     -0.89220557     -0.96017086
H       3.45648526     -1.67478407     -0.10802154
H       3.46559047     -0.37274890      1.07778663
H       3.74190642     -0.00236374     -0.63086067
