15
b3lypvtz=-193604.4515319
C      -1.21515479     -0.24531597     -0.50408075
C      -0.21307418     -0.86587161      0.52140755
C      -0.21727245      0.53860598      1.20568577
C      -0.49039884      1.09008387     -0.21356990
O       0.73415763      1.18199882     -0.97059906
C       1.50130163      0.05277266     -0.90050584
C       1.11214127     -1.00381033     -0.18877734
H      -2.23349822     -0.21435194     -0.11969167
H      -1.20295256     -0.62196648     -1.52506371
H      -0.50585800     -1.74202931      1.09394245
H       0.68790481      0.86369096      1.71496901
H      -1.08831890      0.68514654      1.84251756
H      -0.99689099      2.04070131     -0.35368792
H       2.41374907      0.13817599     -1.47237731
H       1.71416451     -1.89783048     -0.13016884
