14
b3lypvtz=-222196.14294307
N      -2.14459727     -1.24570815     -0.08697014
C      -1.44404130     -0.17993189      0.01130036
N      -1.86758174      1.12464033      0.05943882
N      -0.05505844     -0.33740873      0.07423088
N       0.74849372      0.77209234     -0.11215960
C       2.00763361      0.55860437     -0.09616814
N       2.62529819     -0.67123264      0.04903521
H      -3.13749119     -1.03713819     -0.11564859
H      -1.16853194      1.81990068      0.26375541
H      -2.80038632      1.29343291      0.38849021
H       0.24002895     -1.21310180     -0.34167800
H       2.65482991      1.41052116     -0.26064877
H       3.61478641     -0.63876503      0.23049451
H       2.14246341     -1.33379335      0.64025583
