16
b3lypvtz=-181115.87980723
C       2.92055431      0.43861703      0.08439184
N       1.86289092     -0.07278194      0.54975994
C       0.64026052      0.13841676     -0.13464190
C      -0.56907454      0.23390125      0.76468903
C      -1.80779268      0.56508522     -0.06852253
C      -1.55613275     -0.72434950     -0.91622107
C      -0.32410987     -1.02127199     -0.06042260
H       3.86130084      0.28032874      0.60482056
H       2.94737858      1.04367117     -0.82956215
H       0.67664828      0.74388278     -1.04474342
H      -0.43625561      0.38816501      1.82514605
H      -2.73139806      0.50504466      0.50437689
H      -1.78757630      1.51873800     -0.59997906
H      -1.37655159     -0.58730827     -1.98449100
H      -2.34780061     -1.46030493     -0.78776466
H       0.02765856     -1.98993399      0.26196408
