15
b3lypvtz=-191194.09982901
C      -0.82780046     -1.32241485      0.32788815
N      -0.56661518      0.08723114      0.10926413
C      -1.67802551      0.99158533      0.34571750
C       0.70181283      0.61281715      0.11627633
N       0.89841342      1.87642052      0.26137301
C       1.79655868     -0.31133511     -0.08154665
C       2.76753431     -1.00123826     -0.23605525
H      -1.68461511     -1.63288410     -0.27260641
H      -1.05391770     -1.53850404      1.37958514
H       0.03216969     -1.91640748      0.03267688
H      -1.47087484      1.95073871     -0.11935675
H      -2.58201884      0.55782448     -0.08211781
H      -1.84362309      1.16538369      1.41549854
H       1.88515022      2.09169001      0.16943989
H       3.62585158     -1.61090718     -0.37368866
