19
b3lypvtz=-192757.44947872
C      -1.30700881     -1.31687358      0.01492470
C      -0.56300526      0.02476985     -0.00131612
C      -0.96645704      0.80236463     -1.27107167
C      -0.97561267      0.82387252      1.25340510
C       0.96387588     -0.19468060     -0.00081787
N       1.58202635     -1.31050951     -0.02683450
N       1.71875539      0.96404539     -0.03334431
H      -1.06500677     -1.90304575      0.90283813
H      -2.38336121     -1.13957399      0.01824302
H      -1.07606948     -1.91637898     -0.86679452
H      -0.48875559      1.78026655     -1.31699228
H      -0.68159457      0.25279815     -2.16942763
H      -2.04813972      0.95031686     -1.29229320
H      -0.56166175      1.83355683      1.26210328
H      -2.06177439      0.92538514      1.28913075
H      -0.65379177      0.31921155      2.16580674
H       0.94158051     -2.09389697     -0.07274579
H       2.70219155      0.81278236      0.12765696
H       1.34451632      1.79343557      0.39234120
