17
b3lypvtz=-217664.81580101
C       2.44505623     -0.24191229     -0.01433624
O       1.21832961     -0.27715217     -0.72546471
C       0.09731596      0.15213855      0.00853306
C       0.01201859      1.63744219      0.25558363
C      -0.46638897     -0.82657393      1.02076541
C      -1.14003220     -0.63854707     -0.30626676
O      -2.40552512     -0.03526387     -0.28404658
H       2.38533372     -0.81261875      0.91861726
H       2.75561664      0.78113735      0.22032466
H       3.19497854     -0.69488388     -0.66037043
H       0.14350431      2.18028287     -0.68314844
H      -0.95911872      1.89882353      0.67216444
H       0.78010339      1.97567032      0.95334015
H      -0.97216461     -0.41710328      1.88492760
H       0.06130706     -1.75522026      1.18714617
H      -1.01362409     -1.43203764     -1.03606176
H      -2.54995235      0.40298133     -1.12929846
