18
b3lypvtz=-181911.07145912
C       2.12142036      1.30246152     -0.07300068
C       1.67865066      0.03824064      0.01185013
N       2.47304379     -1.06766689     -0.30963302
C       0.30274610     -0.30892804      0.41452889
C      -0.79748046      0.37911128      0.11433211
C      -2.18389875      0.02529885      0.55812845
C      -3.15141545     -0.18611801     -0.61426476
H       3.12924677      1.52829138     -0.39593308
H       1.48095280      2.13037614      0.18410965
H       2.19645386     -1.93629331      0.11866341
H       3.46763372     -0.91606976     -0.25151578
H       0.20008371     -1.22254152      0.99823984
H      -0.70485299      1.26355492     -0.51022998
H      -2.57189321      0.83272030      1.18969682
H      -2.15427002     -0.86963882      1.18426955
H      -4.15784458     -0.40715383     -0.25538173
H      -2.82579036     -1.01447433     -1.24513103
H      -3.20919595      0.70559849     -1.24150478
