12
b3lypvtz=-223849.39173982
N      -0.14528950      1.76828329      0.84045516
C       0.27377855      0.53344205      0.39159825
O       1.54463209      0.14434745      0.68687816
C       1.68651866     -1.05759378      0.03864401
N       0.64883263     -1.42152994     -0.62121857
C      -0.28991149     -0.41061586     -0.40642846
N      -1.60168045     -0.36873005     -0.92465130
H       0.09955227      1.96320417      1.80156045
H      -1.13472384      1.89267568      0.67619096
H       2.62940778     -1.55995803      0.16398490
H      -2.10737830     -1.22122230     -0.71401972
H      -1.60363839     -0.26230268     -1.93299383
