20
b3lypvtz=-182683.1400144
C       1.88671711      0.90776819     -0.63322500
C       0.76191017      0.26579580      0.16814703
C       0.81312969     -1.27068131      0.24011976
C      -0.64710223     -1.74455727      0.49026912
C      -1.52164292     -0.47669275      0.37606367
C      -0.64983155      0.55031169     -0.37191986
N      -1.01870442      1.95974366     -0.25998570
H       1.74957715      1.98769040     -0.69202819
H       1.90660964      0.51563385     -1.65369662
H       2.86179479      0.70934966     -0.18345373
H       0.79265577      0.66418875      1.19129696
H       1.17958223     -1.66392796     -0.71155864
H       1.50321170     -1.62170867      1.00794280
H      -0.93932973     -2.49086591     -0.24920989
H      -0.75877834     -2.21667637      1.46641348
H      -1.74739566     -0.07645241      1.36938261
H      -2.47732930     -0.65811641     -0.11868601
H      -0.65488895      0.30759865     -1.44118580
H      -1.90890420      2.13632368     -0.71053278
H      -1.13128097      2.21527475      0.71584680
