14
b3lypvtz=-203673.50833403
C      -0.26209262     -1.14831182     -0.01235184
C       0.54902142      0.13809203     -0.23162320
C       2.00428954      0.20595834     -0.08587504
O       1.41190954      0.19033428     -1.39105656
C      -0.40331984      1.24273977      0.02339436
C      -1.58261350      0.71522618      0.37117561
N      -1.56576363     -0.67479543      0.49027594
H      -0.36013283     -1.67805492     -0.96270909
H       0.20890548     -1.81693048      0.70937594
H       2.47581447      1.14244624      0.19958229
H       2.55991434     -0.68889036      0.18460875
H      -0.15993853      2.28939788     -0.04657729
H      -2.49561604      1.24397709      0.60472880
H      -2.38037779     -1.16118882      0.14705135
