16
b3lypvtz=-225381.13608421
C       1.20497908      0.10176321      0.02579092
C      -0.22422962     -0.36517734     -0.29178243
C      -0.93762375      0.75231963     -1.06478168
O      -0.64620203      1.00373425     -2.22191437
N      -1.86994866      1.42429617     -0.35043649
N      -0.90460223     -0.71655192      0.95523518
N       1.93850882     -0.95940335      0.72431657
H       1.14475708      0.96154616      0.69683113
H       1.66953877      0.43454642     -0.90606242
H      -0.15219423     -1.20292767     -0.99684565
H      -2.01399821      1.16802430      0.61314322
H      -2.33822043      2.20966682     -0.76672389
H      -1.65503964     -1.37525079      0.78663227
H      -0.22939385     -1.17435526      1.55985330
H       2.77078385     -0.58955941      1.16519700
H       2.24288505     -1.67267122      0.07154734
