13
b3lypvtz=-237031.86426902
C      -2.46334690      0.33713350     -0.19957715
O      -1.11493921      0.65371323     -0.52905410
C      -0.16148891     -0.17965669     -0.05670574
N      -0.24402406     -1.21881041      0.64438756
O       1.00451684      0.35856798     -0.51858175
N       2.15401255     -0.36513981     -0.13761755
C       3.18304535      0.20273395     -0.60546085
H      -2.61805773      0.34973912      0.88153460
H      -2.74813966     -0.63801882     -0.60059554
H      -3.06975010      1.11056752     -0.66176424
H      -1.20029759     -1.45082054      0.88360010
H       4.12913218     -0.26859926     -0.37485570
H       3.14933726      1.10859022     -1.20500965
