15
b3lypvtz=-193607.48358237
C       2.53453965      0.21606789     -0.02550884
O       1.38135215     -0.51010626     -0.40026406
C       0.22975927     -0.19494159      0.35918235
C      -0.43632833      1.14547177      0.10102593
C      -1.73915390      0.94179792     -0.12789821
C      -2.02174705     -0.50584031     -0.11838328
C      -0.88922804     -1.17715286      0.11781885
H       2.77208307      0.06964742      1.03602769
H       3.35789849     -0.16309774     -0.62810732
H       2.42777390      1.28986020     -0.21447677
H       0.48179437     -0.23180098      1.43655893
H       0.06917414      2.09654488      0.16053305
H      -2.48569244      1.70548990     -0.29383522
H      -2.99895634     -0.93678820     -0.28096661
H      -0.75048393     -2.24541804      0.17175052
