14
b3lypvtz=-203689.80451662
C      -1.23785176     -0.13323674      0.28602887
C      -0.48850430     -1.23804122     -0.47149413
N       0.86582921     -1.50046930     -0.02639804
C       1.74995021     -0.63787028      0.18047916
O       1.75771401      0.73477292      0.10034225
C       0.64840411      1.54305513      0.02521635
C      -0.63827922      1.22776109      0.11617465
H      -2.27470124     -0.11649807     -0.05900323
H      -1.27765790     -0.40636993      1.34503835
H      -0.47057021     -0.99225495     -1.53712794
H      -1.04353711     -2.17282771     -0.37612133
H       2.75305263     -0.94480152      0.46007289
H       0.97252579      2.56702805     -0.09452285
H      -1.31637422      2.06975255      0.05131502
