15
b3lypvtz=-214533.66370064
N      -3.25490969      0.26863002      0.15530274
C      -2.23519366     -0.42979990     -0.11538806
C      -0.85818475      0.04746046     -0.49076940
C       0.21352700     -0.46961373      0.49013303
C       1.60832393     -0.05624651      0.09976589
N       2.59928961     -0.78018761     -0.20758379
O       1.74177503      1.29327489      0.09835253
H      -3.04053370      1.26705274      0.08767414
H      -2.35662831     -1.51669087     -0.07115871
H      -0.62276616     -0.32107526     -1.49486506
H      -0.83593291      1.13702383     -0.52742635
H       0.00484185     -0.07470331      1.48743685
H       0.17459815     -1.55723350      0.55260603
H       2.37031257     -1.76807512     -0.16734972
H       2.65567906      1.47776486     -0.16303111
