14
b3lypvtz=-203696.25727184
C       3.13501560      0.65869718     -0.00007518
C       2.30580891     -0.63410436     -0.00004494
C       0.86689215     -0.40705751     -0.00006690
C      -0.32142108     -0.21711611     -0.00005707
C      -1.76999028     -0.07414729     -0.00003952
N      -2.20341673      1.21875230      0.00003937
O      -2.52329786     -1.02957890     -0.00008812
H       2.91752648      1.26027156     -0.88236679
H       4.19966505      0.42354918     -0.00005952
H       2.91751153      1.26032208      0.88217839
H       2.56164088     -1.24098407     -0.87338207
H       2.56161460     -1.24092686      0.87333998
H      -3.19395907      1.39155550      0.00011198
H      -1.56055718      1.98922930      0.00014740
