17
b3lypvtz=-191978.17280996
C       0.06806076     -0.85728033     -0.35325898
C      -1.19553639     -0.25511433      0.20253052
C      -2.32243562     -0.10253262     -0.49491270
N      -3.48499566      0.54770751     -0.07339724
C       1.22773554      0.10359337     -0.37565896
C       2.37478379     -0.09375958      0.27603173
N       3.51651188      0.71023976      0.22112598
H       0.35628844     -1.73588940      0.23530471
H      -0.13647424     -1.22454974     -1.36566138
H      -1.14971016      0.10341289      1.22795482
H      -2.37024823     -0.44631355     -1.52357100
H      -4.33964537      0.16599539     -0.44791291
H      -3.55265321      0.68525340      0.92422998
H       1.09530780      1.00859359     -0.96332419
H       2.50836999     -0.99166501      0.87167338
H       4.04588665      0.74521010      1.07870343
H       3.35875399      1.63709856     -0.14659182
