13
b3lypvtz=-242048.93762184
C      -2.42345765      0.40014972      0.46862326
C      -1.05418873     -0.16592774      0.28747585
C       0.01944469      0.54428734     -0.06420160
C       1.34201523     -0.01888848     -0.23702180
N       2.33547051      0.70021438     -0.57396627
O       3.51780372     -0.03123888     -0.68744359
F       1.46389475     -1.33918459     -0.02309387
H      -3.13634387     -0.08399318     -0.20478741
H      -2.44836965      1.47329242      0.28034604
H      -2.78728572      0.22024320      1.48415330
H      -0.93937944     -1.23090348      0.45685759
H      -0.04165550      1.60987408     -0.24464470
H       4.15205164      0.64641055     -0.94229681
