10
b3lypvtz=-223033.53969618
C      -1.23270793     -1.25642602     -0.06182772
C      -0.57042893     -0.11269928     -0.25857423
C      -1.26461334      1.12937097     -0.46191055
N      -1.84631550      2.10985657     -0.62217650
N       0.84360628     -0.14462836     -0.26339828
N       1.38279848      0.95185713     -0.45163093
O       2.73340282      0.86015755     -0.44598755
H      -0.68263298     -2.17385257      0.08797867
H      -2.31122553     -1.28159364     -0.04964638
H       2.94821662     -0.08204235     -0.28882652
