14
b3lypvtz=-224569.39656824
N       2.81106732      0.66063664     -0.08951349
N       1.76226586      0.81135418      0.54703068
C       0.67243393     -0.03072895      0.09003878
N       0.79803215     -1.26634831     -0.14936955
C      -0.64374995      0.68935577      0.05801603
C      -1.76878885     -0.12833434     -0.57583402
O      -2.05811614     -1.31074988      0.14344193
H       3.51873150      1.27090383      0.34480935
H       1.77359081     -1.55853484     -0.08091790
H      -0.51182096      1.63565227     -0.47747223
H      -0.90453330      0.95764484      1.08643260
H      -2.68204723      0.46765609     -0.58067947
H      -1.51324931     -0.35116203     -1.61880363
H      -1.25391583     -1.84734527      0.10312093
