16
b3lypvtz=-204414.12164034
C       2.29735992     -0.26087663      0.04110764
N       1.15387882      0.64269729     -0.01254898
C      -0.06906449      0.08218415      0.50086660
C      -1.34203024      0.99721264      0.43502664
C      -2.03419591     -0.09721577     -0.37453735
C      -0.85407230     -0.97010479     -0.33119273
O      -1.23943491     -0.31629061     -1.55098888
H       3.16689910      0.22794748     -0.39835128
H       2.53584117     -0.48407819      1.08333466
H       2.14595789     -1.21774331     -0.48036534
H       0.99567249      0.94937093     -0.96588045
H       0.10154443     -0.27758691      1.51768733
H      -1.78264515      1.17247501      1.41546317
H      -1.21648832      1.94667934     -0.08442607
H      -3.08385754     -0.34603651     -0.43793055
H      -0.77536498     -2.04863411     -0.35726438
