17
b3lypvtz=-191983.97499473
C      -1.57938695     -0.84365373     -0.42720913
C      -0.39968288     -0.00241888      0.03973296
C      -0.82873034      1.09310026      1.01049384
C       0.57877284      0.48875365     -1.07798345
C       1.66770336     -0.25661832     -0.31987006
N       2.92289117     -0.29193572     -0.45931452
N       0.73622454     -0.82449157      0.54393964
H      -2.31505694     -0.22469392     -0.94495969
H      -1.24694075     -1.62847674     -1.10635996
H      -2.07928672     -1.31783252      0.42053150
H      -1.56297113      1.75503990      0.54743863
H       0.02427368      1.69642271      1.32429206
H      -1.28911936      0.66201410      1.90296031
H       0.72645042      1.56497456     -1.13643997
H       0.37565095      0.09213471     -2.07134298
H       3.36722023     -0.87714419      0.24800950
H       0.90198785     -1.08517432      1.50608133
