15
b3lypvtz=-214527.26536931
O       2.38045294     -0.69585795      0.34678154
C       1.43756512      0.35635778      0.53532486
C       0.30455434      0.32021788     -0.49484297
C      -0.57006619     -0.95649585     -0.38073139
N      -1.73532998     -0.42871829      0.34556292
C      -1.68987957      0.94366931      0.20226984
N      -0.61310122      1.45465686     -0.25060116
H       2.89052234     -0.51056748     -0.44748858
H       1.02698415      0.21618751      1.53631757
H       1.91626716      1.33909643      0.50632163
H       0.74380317      0.41630723     -1.49122853
H      -0.06938154     -1.75089289      0.17076735
H      -0.85718555     -1.34082472     -1.36405511
H      -2.62244243     -0.90007879      0.27175565
H      -2.54266276      1.53694297      0.51384639
