13
b3lypvtz=-211372.13968992
N      -3.22713434     -0.68618923     -0.03045324
C      -2.29930051      0.17600388      0.02624806
N      -0.93734324     -0.10007670     -0.10774866
C      -0.13009141      0.88776123      0.04343308
N       1.23543412      0.80901020     -0.06725485
C       1.79472465     -0.33049844      0.15296243
N       3.10045859     -0.53383201     -0.07216062
H      -2.81741701     -1.60910186     -0.19213312
H      -2.57816730      1.22348993      0.19112602
H      -0.49480026      1.90058164      0.24015518
H       1.24595278     -1.18923519      0.54139396
H       3.54286418     -1.39767600      0.17972082
H       3.66306173      0.21823256     -0.43441105
