13
b3lypvtz=-192809.23936045
C      -3.16440322     -0.26715324      0.08504921
C      -1.99039721     -0.06505549      0.22726919
C      -0.58633816      0.16522464      0.43310635
O       0.08828038      1.03729631     -0.48825962
C       0.44377633     -0.34037870     -0.51218284
C       1.80270785     -0.71772448     -0.06167373
C       2.72713505      0.14848492      0.33359295
H      -4.20321634     -0.44036436     -0.04839118
H      -0.27897982      0.29561469      1.46600808
H       0.06563617     -0.87992290     -1.37711458
H       2.01628691     -1.78163225     -0.08385110
H       2.52853784      1.21216300      0.33862392
H       3.70561121     -0.18209814      0.65357034
