14
b3lypvtz=-180395.65619135
C      -2.31318099      0.41833287     -0.01610946
C      -0.97448759      0.48881117      0.63097341
C       0.17367687     -0.04993794      0.17788710
C       1.44291913      0.08211724      0.89957814
C       2.61344682     -0.42103784      0.51207253
C       0.18418246     -0.78557878     -1.05416815
N       0.21464893     -1.38040653     -2.04108731
H      -2.29575722     -0.14249672     -0.94867240
H      -2.68983715      1.42432588     -0.22257587
H      -3.03768370     -0.04879670      0.65715845
H      -0.91869262      1.03321995      1.56831552
H       1.37913781      0.64581385      1.82395871
H       3.50378873     -0.27556507      1.10716244
H       2.71783849     -0.98880137     -0.40344939
