17
b3lypvtz=-215287.99538689
C       2.91598436      0.33402541      0.03642156
O       1.59197970      0.13840391     -0.41751699
C       0.87073553     -0.79500749      0.36913614
C      -0.53004669     -0.96773193     -0.19481226
C      -1.46852634      0.21399606      0.00479969
N      -1.14212639      1.43494613      0.15591297
N      -2.80483032     -0.14536650      0.04994383
H       3.48678509     -0.60274625      0.01732379
H       3.38640802      1.04986712     -0.63472965
H       2.93738439      0.73353798      1.05759991
H       0.82400630     -0.45398929      1.41201268
H       1.38897050     -1.76331871      0.36030428
H      -0.97423570     -1.85209046      0.26924673
H      -0.45189607     -1.17816659     -1.26586752
H      -0.13374599      1.54287549      0.11578912
H      -3.07941847     -0.98966400     -0.42294311
H      -3.44531194      0.62621512     -0.05487817
