10
b3lypvtz=-246338.02325936
O       2.95751187      0.81235794      0.88053343
N       1.68305792      0.39364692      0.89402270
N       1.18280576      0.38079117     -0.24414642
C      -0.15016881     -0.05890182     -0.20657344
N      -0.79526467     -0.12530089     -1.30005947
C      -2.14518992     -0.58002322     -1.19362538
O      -2.71586000     -0.89906948     -0.18383823
H       3.17735214      1.00816715     -0.05541091
H      -0.56143218     -0.32167659      0.77018680
H      -2.63281209     -0.60989117     -2.17718908
