14
b3lypvtz=-201266.77419816251
C      -2.50299389      0.22609153      0.20686790
N      -1.22017381      0.63991655     -0.36087134
C      -0.21670920     -0.33440242     -0.36568153
N       1.01861827      0.04121544     -0.10792555
C       2.20064987     -0.62537595     -0.15780917
C       3.36864776      0.02227455      0.23572455
N       4.34537378      0.56464453      0.55598856
H      -2.37736684      0.00107583      1.26567571
H      -2.93368944     -0.65649687     -0.28368984
H      -3.21232207      1.04793992      0.11613657
H      -1.34985231      1.08080551     -1.26516416
H      -0.40576726     -1.38071175     -0.58029455
H       1.08476718      1.02115595      0.15692071
H       2.20081797     -1.64813283     -0.49347460
