16
b3lypvtz=-202062.10200706
C      -3.18287807     -0.06870643     -0.71796216
C      -2.29194279      0.26902295      0.47558032
N      -0.99509151     -0.38352691      0.42680728
C       0.17624886      0.23390501      0.19009743
N       1.29130229     -0.39830212      0.10335096
C       2.42616197      0.36988809     -0.13295447
N       3.60994823     -0.07171968     -0.24618510
H      -2.72329248      0.25463540     -1.65227170
H      -3.35964406     -1.14371881     -0.78248323
H      -4.15188817      0.42352911     -0.62052256
H      -2.11506779      1.34413472      0.52345710
H      -2.79457430     -0.00657806      1.40632910
H      -0.95271135     -1.38820973      0.51132194
H       0.09750627      1.32180093      0.08358831
H       2.27516918      1.45338794     -0.23102503
H       3.60025772     -1.08793642     -0.13411219
