18
b3lypvtz=-181898.47613288
C      -2.22241055     -0.37574518      0.21155596
C      -0.75377597     -0.13357161      0.50500882
C       0.25082924     -1.32449281      0.44127203
C       1.23502898     -0.38142022     -0.22311829
C       2.55394747     -0.29207173     -0.27000131
C       0.12997117      0.59627504     -0.57241220
N       0.44567900      2.00622375     -0.54021727
H      -2.77476486      0.56572739      0.15275749
H      -2.69336092     -0.98410681      0.98700907
H      -2.34979899     -0.89650835     -0.74089747
H      -0.63372021      0.38692884      1.45909267
H       0.55359270     -1.78704080      1.38012467
H      -0.09769845     -2.10848601     -0.23706776
H       3.03407012      0.56686970     -0.72181523
H       3.19221217     -1.06494628      0.14026828
H      -0.27335992      0.36380264     -1.56509472
H       0.75722822      2.28666623      0.38253646
H      -0.35366921      2.57589622     -0.78900122
