14
b3lypvtz=-203680.29750963303
C       3.01757998      0.15021901      0.18006392
C       1.79148975      0.62339490     -0.02248408
C       0.58400605     -0.22448939      0.12864345
O       0.65151623     -1.42417988      0.45236133
C      -0.67839604      0.39777259     -0.11518686
N      -1.73373696     -0.42849580      0.03983037
C      -3.02470438     -0.27517481     -0.08086198
H       3.15747587     -0.88453638      0.46462409
H       3.89470012      0.77304750      0.06868186
H       1.63537617      1.65808603     -0.30831511
H      -0.83528700      1.42485677     -0.39865619
H      -1.36774961     -1.35415578      0.30920378
H      -3.42842361      0.68440399     -0.36175102
H      -3.66384655     -1.12074875      0.10518298
