17
b3lypvtz=-191977.50955127
C       3.66889083     -0.25111124      0.09395458
C       2.31473841      0.36079907      0.23827259
C       1.17808463     -0.19537969     -0.18427913
N      -0.05319121      0.43933048     -0.01466347
C      -1.10353072     -0.13304237     -0.44656507
C      -2.47303790      0.45631708     -0.27000383
N      -3.38070933     -0.37358863      0.53407374
H       4.14406714     -0.39008071      1.06941285
H       4.33400618      0.39693186     -0.48420344
H       3.62432274     -1.22085184     -0.40289852
H       2.24651737      1.33004955      0.72085364
H       1.18780227     -1.17043923     -0.67906080
H      -1.05998698     -1.11784196     -0.93841653
H      -2.37282382      1.43427667      0.20016025
H      -2.93952568      0.60744333     -1.24792640
H      -3.54509738     -1.26861623      0.08744448
H      -2.96582355     -0.56674814      1.43859607
