19
b3lypvtz=-192738.61215887
C       3.12489784     -0.27883805     -0.11978834
N       1.75574282      0.06728599     -0.46883848
C       0.78031912     -0.27922358      0.56701357
C      -0.61369449      0.14365276      0.19213636
C      -0.85986677      1.62041130      0.03346974
C      -1.57542223     -0.77814148      0.05459241
N      -2.93407979     -0.54842198     -0.16346072
H       3.26767310     -1.33732378      0.15352144
H       3.78711141     -0.05176746     -0.95591734
H       3.44936358      0.32439954      0.73117007
H       1.49004874     -0.38879019     -1.33365927
H       1.09637198      0.24030281      1.48095595
H       0.78777613     -1.35488981      0.80911586
H      -1.65841829      1.83940383     -0.68048320
H      -1.13806343      2.09196056      0.98269799
H       0.04342685      2.11160148     -0.32793887
H      -1.33237985     -1.82654796      0.18799195
H      -3.40457720     -1.26340655     -0.69553398
H      -3.17092152      0.37537857     -0.49146714
