15
b3lypvtz=-191232.20882449
C       2.85408550     -0.01607878      0.11423808
N       1.46689537      0.28045668     -0.18633977
C       0.48366144     -0.64863611     -0.06899808
C      -0.85210017     -0.41818364     -0.00404308
C      -1.87475748     -1.52549501      0.03908084
C      -1.30274114      0.92674547      0.00815174
N      -1.63369016      2.03571087      0.02033706
H       3.49699337      0.71208449     -0.37807585
H       3.10949774     -1.00203700     -0.27418942
H       3.07347318     -0.00226125      1.18756546
H       1.18400526      1.24647238     -0.11390686
H       0.83497331     -1.67441472     -0.06008487
H      -2.53498287     -1.50127897     -0.83093948
H      -2.50665578     -1.45354758      0.92679437
H      -1.37980255     -2.49662381      0.05642587
