21
b3lypvtz=-193500.94957961
C       2.37582847     -0.83983098     -0.28257353
N       1.51612910      0.12446340      0.39066036
C       0.28830325      0.48363629     -0.32403179
C      -0.16379176      1.87896934      0.09848574
C      -0.79751016     -0.59843245     -0.10950785
C      -1.32695743     -0.65507449      1.31935885
N      -1.90992689     -0.33709598     -1.03558342
H       1.90675113     -1.82434236     -0.30314506
H       3.30981689     -0.94006977      0.27102666
H       2.61919088     -0.56667161     -1.32207231
H       2.04387417      0.96454612      0.58562127
H       0.47780728      0.51116762     -1.41261085
H       0.54384006      2.63300043     -0.25348395
H      -1.14191849      2.10377867     -0.32225061
H      -0.22514680      1.95655836      1.18505087
H      -0.31774907     -1.56476509     -0.31784527
H      -1.91246105      0.23368880      1.55673153
H      -0.50006108     -0.73462554      2.02388199
H      -1.97382083     -1.52532534      1.45319702
H      -1.60837433     -0.45326478     -1.99688434
H      -2.65773135     -1.00357563     -0.88323531
