15
b3lypvtz=-193601.61136754
C      -2.09250138      0.62299540     -0.05964728
C      -0.86800133      0.11351026      0.01070611
C      -0.44759956     -1.08254492      0.84415471
O       0.75776687     -1.59076257      0.25663797
C       1.31568247     -0.59144647     -0.56163321
C       0.32950010      0.53261874     -0.75060035
C       1.61917087      0.73562856      0.05011768
H      -2.91907604      0.18858005      0.48798121
H      -2.31035978      1.49201131     -0.66609899
H      -0.25849117     -0.78732050      1.88262595
H      -1.18972040     -1.88096962      0.84940160
H       1.92236044     -0.99826521     -1.35741649
H       0.20803826      1.05696073     -1.68691433
H       2.37970592      1.34152327     -0.42308058
H       1.55352470      0.84748099      1.12376600
