16
b3lypvtz=-181124.2201235
C       3.24420551     -0.46232956      0.02845085
C       2.45281288      0.61609254     -0.02219376
N       1.07948824      0.64075755     -0.13355795
C       0.30882507     -0.58061364      0.04096140
C      -1.12569645     -0.31772516      0.02316499
C      -2.30671849     -0.09922540      0.01962753
C      -3.74066030      0.15442965      0.00721982
H       2.86482794     -1.47380657      0.02056989
H       4.31525515     -0.33658300      0.06086628
H       2.89368483      1.60652955     -0.01279331
H       0.62042453      1.47799177      0.18223709
H       0.57944347     -1.08787741      0.97913746
H       0.56560594     -1.27573880     -0.76573555
H      -4.09776297      0.46497164      0.99096963
H      -4.29142518     -0.74338803     -0.27987430
H      -3.99372617      0.94120688     -0.70599607
