18
b3lypvtz=-181908.44332394
C       3.20697104     -0.26451978      0.04975838
C       1.88070476     -0.45026120      0.03439458
C       0.88864477      0.59859008      0.03384159
C      -0.45475850      0.44404709     -0.07341186
C      -1.37193954      1.63225841     -0.00071542
N      -1.06742851     -0.77386869     -0.32724874
C      -2.38406083     -1.10767184      0.19265737
H       3.89453970     -1.09825548      0.06986345
H       3.63949718      0.72884923      0.04376291
H       1.52959665     -1.47969134      0.04038115
H       1.26037925      1.61230895      0.11547752
H      -2.00259365      1.69796149     -0.89127424
H      -0.79371984      2.54916860      0.08194817
H      -2.03863574      1.57854090      0.86370019
H      -0.43419092     -1.55612605     -0.33736288
H      -2.66634670     -2.09002226     -0.18364840
H      -3.13098289     -0.39778168     -0.15964870
H      -2.42983123     -1.13556843      1.28926496
