16
b3lypvtz=-204462.26047115
C      -1.09748478      1.26620787     -0.50154784
C      -0.24024885      0.17555600      0.14355558
C      -1.04911591     -1.10143906      0.38684445
C       1.00368949     -0.10499624     -0.72924944
O       1.77616366      1.05413802     -1.00890734
C       1.85948967     -1.14927276     -0.13111112
N       2.54177937     -1.93270646      0.36381019
H      -0.52124338      2.16855846     -0.69651351
H      -1.51341202      0.92080872     -1.45118972
H      -1.93208855      1.52454148      0.15103910
H       0.12688505      0.54149551      1.10887138
H      -1.91431587     -0.88446008      1.01365687
H      -1.42023069     -1.51240478     -0.55523081
H      -0.46051382     -1.87209402      0.88388348
H       0.67309988     -0.46779469     -1.70559345
H       2.16754674      1.37396205     -0.18791780
