18
b3lypvtz=-181868.13254204
C       2.02656536      0.31434952      0.49046057
C       0.87503877      0.01333340     -0.44576364
C       0.20544273     -1.38687697     -0.44907997
C      -1.02718843     -0.75109388     -1.13183894
C      -0.60401396      0.18387122      0.03695532
N      -0.37092151     -1.04702423      0.91673323
C      -1.28216641      1.41732641      0.55415966
H       2.17818790      1.39260711      0.58301622
H       2.95649750     -0.11009460      0.10477297
H       1.84284880     -0.09665558      1.48090152
H       1.05056683      0.41485718     -1.44548938
H       0.66738336     -2.35275676     -0.64740350
H      -1.97147889     -1.28043248     -0.99317679
H      -0.91840963     -0.37741209     -2.15285009
H      -1.25797770     -1.54184735      1.03703680
H      -2.30816070      1.20251889      0.86105908
H      -0.74635772      1.81569017      1.41730053
H      -1.31585630      2.18964005     -0.21679362
