13
b3lypvtz=-239462.02743747
O      -2.50870412      0.26845775     -0.20819683
C      -1.58790686     -0.50417094     -0.19844777
C      -0.32330466     -0.28521006      0.61987580
C       0.29218079      1.11316093      0.43842115
O       1.28390353      0.88714963     -0.55817068
C       1.79475441     -0.38601155     -0.26393827
O       0.69482533     -1.17960971      0.17254959
H      -1.59649511     -1.44583782     -0.78192169
H      -0.56767533     -0.48516632      1.66879164
H      -0.42270514      1.84628459      0.07483430
H       0.74889592      1.46741984      1.36853282
H       2.54580175     -0.33353880      0.53747801
H       2.22183949     -0.81881055     -1.16722407
