12
b3lypvtz=-223795.61759783
N       0.80337787     -2.27181363     -0.18040773
C       0.99938931     -1.04995356      0.10613067
C      -0.01612206      0.03050742      0.09398330
C      -1.46768291     -0.30593273      0.17391311
N      -2.44586852      0.44609791     -0.10987472
N       0.26259376      1.28224873      0.04008787
O       1.61523250      1.55165193     -0.05527813
H      -0.16598605     -2.45427012     -0.44688363
H       2.00597808     -0.74793394      0.38176594
H      -1.68949876     -1.30995000      0.53637389
H      -2.11163464      1.35735920     -0.43353045
H       1.64594843      2.51458478     -0.04415912
