17
b3lypvtz=-191953.63373195
N       1.97186816     -0.89231238     -0.11392934
C       0.53493089     -0.86061222     -0.33145284
C      -0.27573838     -1.20236187      0.95536063
C      -0.94819884      0.16848211      0.90404891
C      -1.63435205      0.33449291     -0.43066208
C      -0.15737685      0.52108931     -0.37509750
N       0.49984049      1.68116456     -0.87637702
H       2.22442143     -0.36563016      0.71573926
H       2.45399899     -0.46431235     -0.89673147
H       0.31807792     -1.48457399     -1.20303963
H      -0.93771969     -2.06920748      0.89761326
H       0.39044191     -1.33123122      1.80857713
H      -1.22309981      0.77857732      1.75420609
H      -2.21106455      1.24608855     -0.53838176
H      -2.07120032     -0.52341715     -0.93491680
H      -0.14188705      2.43103514     -1.09082836
H       1.20715773      2.03272893     -0.24412850
