16
b3lypvtz=-204447.44078698
C      -2.74731880      0.50788646      0.16887871
C      -2.09787570     -0.66026778      0.09305778
C      -0.67124428     -0.92367841      0.00223564
C       0.33280857     -0.04605372     -0.19054513
O       0.11992393      1.30024584     -0.17222293
N       1.65523143     -0.40055468     -0.47264703
C       2.69917451      0.01156365      0.47440813
H      -3.82792073      0.52373961      0.21531654
H      -2.23498827      1.45750033      0.18790494
H      -2.70364302     -1.56210009      0.10287931
H      -0.37329901     -1.96224996      0.07377834
H       0.79505935      1.71283634     -0.72562062
H       1.72360508     -1.38095698     -0.70289614
H       3.67652726     -0.18402593      0.03518595
H       2.62461729      1.08057443      0.66479070
H       2.62939639     -0.50790312      1.43717181
