20
b3lypvtz=-182674.23301315
C      -3.03480810      0.04914421     -0.51574064
N      -1.89488304      0.23484702      0.35961411
C      -0.87582687     -0.49064742      0.18285776
C       0.34546627     -0.38469952      1.04754716
C       1.63586005      0.05805707      0.31638551
C       2.08204445     -0.94087964     -0.75704529
C       1.50967294      1.47291378     -0.25564553
H      -3.26072287      0.99272072     -1.01699820
H      -2.88666071     -0.73052538     -1.27583268
H      -3.91062533     -0.20606803      0.08470705
H      -0.85361520     -1.24610651     -0.61724794
H       0.52917201     -1.36586843      1.50016181
H       0.12244904      0.31379376      1.85490778
H       2.41600068      0.08034195      1.08398195
H       2.17716420     -1.94987748     -0.35020002
H       1.37683016     -0.98103305     -1.58984666
H       3.05215062     -0.65592595     -1.16831051
H       1.22314643      2.18921633      0.51604816
H       2.45685548      1.80245731     -0.68685105
H       0.75310680      1.51813826     -1.04174978
