16
b3lypvtz=-181129.35953276
C      -1.28037570      1.47350480      0.41864222
C      -0.49543502      0.29251459     -0.06575936
C      -0.95465037     -1.11691730      0.04335377
C       0.33365771     -0.73090757      0.75535281
C       1.43578664     -0.60236455     -0.24133056
N       2.64279708     -0.95678146     -0.33272075
C       0.63234886      0.36389993     -1.11501172
H      -1.87514541      1.21961172      1.29763748
H      -1.96823304      1.82636499     -0.35445751
H      -0.62396092      2.30532430      0.68282190
H      -0.92102354     -1.78585426     -0.80922497
H      -1.78732402     -1.29253548      0.71307597
H       0.43805614     -0.84640979      1.82600781
H       2.91692171     -1.52926079      0.46764435
H       0.38220779      0.04338301     -2.12788466
H       1.12437211      1.33642786     -1.15814677
