16
b3lypvtz=-204405.3012856
C       2.31039676     -0.04284831     -0.16201954
O       1.11877311     -0.48088477     -0.80652695
C      -0.03877657     -0.12272024     -0.14496407
C      -0.50819550     -0.80425149      1.11542686
C      -1.37658959     -0.81195527     -0.11323366
N      -2.10618887      0.47624415     -0.17127755
C      -0.79110419      1.19419579     -0.36080615
H       3.14417827     -0.43338299     -0.74185166
H       2.36938100     -0.42441450      0.86166257
H       2.37454688      1.04946265     -0.13645014
H      -0.82474378     -0.24355742      1.98796987
H      -0.00411269     -1.74177129      1.31289951
H      -1.73688899     -1.71440608     -0.58541849
H      -2.65226669      0.53610026     -1.02262714
H      -0.62309223      2.00734764      0.34775128
H      -0.65531691      1.55684187     -1.38053476
