19
b3lypvtz=-195136.49420057
C      -2.32381700     -1.39630673     -0.08487874
C      -1.88263316      0.03570256     -0.12273822
C      -0.67245475      0.55193284      0.10291382
C      -0.41779050      2.03229785      0.00112623
C       0.52605626     -0.26475835      0.49975744
O       1.58871963     -0.02171926     -0.41473501
C       2.77254532     -0.70380794     -0.06799124
H      -1.50930398     -2.09802912      0.08240455
H      -2.81077895     -1.66888636     -1.02521693
H      -3.06564282     -1.55387777      0.70388666
H      -2.67442012      0.73935223     -0.36715360
H      -1.32916459      2.57685966     -0.24351939
H      -0.02399746      2.42822774      0.94261149
H       0.33126839      2.24330369     -0.76389175
H       0.30185715     -1.33524785      0.53136257
H       0.84766698      0.02982570      1.51226790
H       3.14084467     -0.39977127      0.92069624
H       2.62623299     -1.79191382     -0.06083721
H       3.52316594     -0.45492681     -0.81621482
