13
b3lypvtz=-239678.85859847
N       1.68676433      1.31728307      0.13605813
C       1.43288605     -0.03805232      0.00688289
N       2.58712480     -0.79630500     -0.10439071
N       0.29064117     -0.62400455     -0.00747849
C      -0.88366519      0.09971456     -0.11394193
C      -2.06826065     -0.46572913      0.10447231
F      -3.21169445      0.24435793     -0.03124716
H       2.47474054      1.66917059     -0.38419835
H       0.88695201      1.92611877      0.11907070
H       3.35166096     -0.50997050      0.48864192
H       2.39572256     -1.78531745     -0.06230107
H      -0.88680403      1.14820998     -0.41753136
H      -2.23043709     -1.49269696      0.39628412
