17
b3lypvtz=-194325.93978644
O       2.81626696     -0.30059633     -0.03243187
C       1.67093801     -0.00311174      0.70392801
C       0.61083216      0.68563432     -0.07535383
C      -0.74571977      1.35956655     -0.02574513
C      -1.64065866      0.15138830     -0.54811311
C      -0.75427203     -1.16697033     -0.41947821
C       0.30465488     -0.68049119      0.55805853
H       3.22208395     -1.08548612      0.35091662
H       1.86501026      0.24923373      1.74445466
H       0.87372915      0.50137146     -1.11719103
H      -0.83325549      2.23472812     -0.67178355
H      -1.03494977      1.65276793      0.98324405
H      -1.94676182      0.31261560     -1.58293222
H      -2.55484896      0.06435786      0.04085611
H      -1.34018329     -2.00910713     -0.04682004
H      -0.33681461     -1.44906758     -1.38533657
H      -0.17615097     -0.51683343      1.52372760
