15
b3lypvtz=-214529.47340573
N      -2.63473675     -0.89347212     -0.63528466
C      -1.92728278     -0.29376102      0.04498187
C      -1.03912614      0.46403595      0.92154672
C       0.40916172      0.58058816      0.39798288
O       0.45867636      1.22195480     -0.86912252
C       1.09275962     -0.77918964      0.23284997
N       2.48728542     -0.72969914     -0.18191123
H      -1.46321716      1.46251106      1.05528622
H      -1.03395697     -0.00947187      1.90678093
H       0.96651311      1.16526551      1.14167159
H       0.19741905      2.14340128     -0.78094371
H       1.02431585     -1.32489234      1.17721247
H       0.53405316     -1.35378107     -0.50915587
H       3.05567005     -0.25544744      0.51054124
H       2.56767847     -0.20209113     -1.04299788
