14
b3lypvtz=-201298.32664835
C      -1.24359590     -0.51660758     -0.23411925
C      -0.16384746      0.10475709      0.27265290
N       1.11767958     -0.38602485      0.14996788
C       2.07123639      0.29055111      0.67379206
N       3.36490656     -0.09072400      0.57929634
C      -2.57816169      0.02112924     -0.08729314
N      -3.60555656     -0.56760854     -0.56787625
H      -1.13236695     -1.44927976     -0.77225567
H      -0.30128315      1.04791514      0.81196989
H       1.91561734      1.22862748      1.21796222
H       3.57485921     -0.98445451      0.16731620
H       4.07591157      0.37174431      1.11359823
H      -2.64380578      0.96816188      0.46471388
H      -4.45159317     -0.03818701     -0.36347906
