15
b3lypvtz=-240228.90242942
C      -1.74051300      0.08168668     -1.56795992
C      -0.56759851     -0.38554055     -1.16476298
C       0.00729198     -0.20926510      0.21421383
O      -0.95973961      0.34109009      1.06811985
O       0.46137979     -1.47265549      0.72080499
C       1.26864792      0.66544585      0.21546673
O       1.72788811      0.84714218      1.54883718
H      -2.37854131      0.64429135     -0.90070825
H      -2.09406063     -0.09132405     -2.57587359
H       0.06549792     -0.95360147     -1.83707440
H      -0.47543085      0.70504752      1.82298887
H      -0.32269634     -2.00610004      0.89405106
H       1.02337606      1.65198406     -0.17281658
H       2.03556384      0.21061463     -0.41744821
H       1.94883465     -0.02891566      1.88806141
