12
b3lypvtz=-226236.05372387028
C      -1.03597820     -0.37466682      0.70155507
C      -1.43234175      0.72010391     -0.24826346
N      -0.46093029      0.64984283     -1.08400161
C       0.13561348     -0.49397746     -0.31997254
C       1.54873843     -0.24497082      0.17316851
O       2.06624591     -0.89220143      1.03943304
O       2.18983172      0.75703031     -0.45928285
H      -1.70449654     -1.23208731      0.77348815
H      -0.74733521     -0.05955657      1.70347618
H      -2.26641256      1.41545951     -0.29178168
H       0.13343407     -1.41720417     -0.90161229
H       1.57363094      1.17222801     -1.08620654
