17
b3lypvtz=-171040.22619879
C       1.25790403      0.13935993      0.37878134
C       0.52121722      0.07889602      1.67407404
C       0.77994494      0.67822894      3.03339622
C       0.64447730     -0.67078543      3.72592508
C      -0.17276260     -1.10654058      2.48329424
C      -1.45745334     -0.24234731      2.55100717
C      -0.54406921      0.94818048      2.29336791
H       1.58253092      1.16141719      0.17028490
H       0.63198422     -0.18531828     -0.45662765
H       2.14885321     -0.49402140      0.39181836
H       1.44887680      1.49247744      3.27454574
H       1.60415977     -1.18586060      3.77990739
H       0.14476050     -0.72397924      4.69748643
H      -0.21730714     -2.14926778      2.18267952
H      -2.11501513     -0.42786102      1.70102515
H      -2.03726659     -0.27936237      3.47776856
H      -0.81703490      1.95458402      2.00826560
