18
b3lypvtz=-205213.9755433
C       2.22780048      0.37296828      0.21168181
C       0.94325995     -0.25440124     -0.33767265
C       0.89727840     -1.75794004     -0.04902609
C      -0.29617009      0.46030091      0.22142963
O      -0.17402610      1.84888177     -0.10494634
C      -1.58663995     -0.06463763     -0.36646096
N      -2.54567014     -0.62616894      0.24014666
H       2.28773205      0.24502809      1.29593875
H       3.10329161     -0.10851291     -0.22709266
H       2.27443023      1.43768438     -0.00632175
H       0.92577223     -0.10512963     -1.42247134
H       1.77197842     -2.25078191     -0.47494665
H       0.90444729     -1.95022960      1.02714376
H       0.01003810     -2.23433230     -0.46682853
H      -0.32267788      0.32496017      1.31274952
H      -0.93030166      2.31975018      0.25916210
H      -1.68988968      0.10100814     -1.44239725
H      -2.33691827     -0.72050371      1.23816699
