20
b3lypvtz=-182666.50741144
C       1.47172270     -1.90456041     -0.04136244
C       1.72808651     -0.58859804     -0.08212897
N       0.90227922      0.46081915      0.25039060
C       1.24547108      1.79770285     -0.18790634
C      -0.47413318      0.22152772      0.64341495
C      -1.46297085      0.02355592     -0.51481604
C      -2.88275093     -0.24299404     -0.01755230
H       0.50995744     -2.31826993      0.22331521
H       2.26353064     -2.60187320     -0.26717768
H       2.71775282     -0.26162737     -0.38321111
H       0.83988777      2.05109519     -1.17640583
H       0.86827413      2.53208917      0.52714511
H       2.32917724      1.90125705     -0.23604089
H      -0.79917038      1.06985026      1.25364977
H      -0.49173760     -0.65597693      1.29429635
H      -1.12185340     -0.80504283     -1.13832629
H      -1.45771263      0.91368117     -1.14970930
H      -2.92442236     -1.14613460      0.59559688
H      -3.57638808     -0.37632740     -0.84867766
H      -3.25280715      0.58520125      0.59169999
