14
b3lypvtz=-201265.53382528588
C       0.43013142     -0.25097921     -0.04397314
C       1.66125731      0.21088256     -0.30405510
N       2.80023702     -0.54571655     -0.50188615
C      -0.73111943      0.63746950      0.08619366
C      -1.99149409      0.13948405      0.61154604
N      -2.61162024     -0.32818550      1.59876669
N      -2.02343462      0.40342770     -0.74618804
H       0.26438396     -1.31530862      0.09277908
H       1.81798026      1.27729696     -0.42643148
H       2.76527511     -1.50226435     -0.18618759
H       3.67550845     -0.09643326     -0.29097575
H      -0.51131636      1.69744301      0.14771687
H      -3.53687847     -0.66163639      1.32143700
H      -2.00891030     -0.40789528     -1.35874209
