12
b3lypvtz=-257142.4321464
C       1.72720872     -1.56892954      0.07737027
C       0.85994325     -0.35215173     -0.04565901
C       1.37699833      0.87308320      0.02329294
F       0.62416991      1.98814921     -0.11851258
N      -0.48715762     -0.61254609     -0.35225119
C      -1.40941309     -0.06703612      0.28180593
F      -2.68044790     -0.29801542     -0.06054321
H       2.76938609     -1.29962396      0.24255446
H       1.39653560     -2.19392146      0.91005703
H       1.65624203     -2.17219476     -0.82937214
H       2.42738561      1.08932435      0.14618844
H      -1.34665094      0.60630732      1.13320705
