14
b3lypvtz=-203669.97480308
C       1.44177023      0.56137443     -0.17179243
C       1.13328412     -0.73292222     -0.17844367
C      -0.35975376     -0.95585604     -0.29406057
C      -0.93501471      0.46543218     -0.27336946
C       0.21174962      1.41054725     -0.21734822
N      -0.71503381      1.27610906      0.92564426
O      -0.78355816     -1.78600290      0.79099613
H       2.43954151      0.97145315     -0.09568935
H       1.82062942     -1.55838983     -0.05953994
H      -0.60774868     -1.44061709     -1.24706649
H      -1.84584000      0.67510863     -0.81946430
H       0.21607420      2.37717566     -0.70260676
H      -0.29333836      0.70547087      1.65426836
H      -1.72276160     -1.96888317      0.68847245
