17
b3lypvtz=-171078.89850953
C       0.97676931     -1.30382007     -0.15466306
C      -0.31047281     -1.60057964      0.00087676
C      -1.44908606     -0.68174574      0.35314917
C      -1.44938874      0.68150310     -0.35292481
C      -0.31071859      1.60054298     -0.00137057
C       0.97656980      1.30398742      0.15420636
C       1.70551087      0.00008964      0.00022660
H       1.63989185     -2.12937379     -0.39791794
H      -0.58430092     -2.64300870     -0.12959069
H      -1.46603993     -0.51636391      1.43588445
H      -2.38700290     -1.18982564      0.11632454
H      -2.38723852      1.18946044     -0.11555350
H      -1.46697536      0.51611777     -1.43565027
H      -0.58458897      2.64303329      0.12852822
H       1.63962204      2.12976606      0.39689465
H       2.38961560      0.10896980     -0.85332982
H       2.38852133     -0.10877503      0.85466993
