17
b3lypvtz=-217670.92047045
C      -3.44512411      0.37736622      0.09255388
O      -2.10503887      0.43969929     -0.34548087
C      -1.28270692     -0.54830354      0.25510992
C       0.08481044     -0.46793333     -0.34080864
C       1.21238273     -0.39783774      0.35796940
C       2.58068771     -0.34497580     -0.24767374
O       3.31013417      0.81027175      0.16942457
H      -3.90164695     -0.59299662     -0.14179293
H      -3.99334865      1.16087180     -0.42737926
H      -3.52578345      0.54509327      1.17414548
H      -1.23935880     -0.40819066      1.34363980
H      -1.71527175     -1.54446261      0.07055194
H       0.11991362     -0.48706687     -1.42663251
H       1.17751249     -0.35692739      1.44350628
H       2.51266779     -0.39976150     -1.34042637
H       3.18133073     -1.19326100      0.08784952
H       2.78750382      1.58607171     -0.05869047
