10
b3lypvtz=-228075.33020164
C       2.03687852     -1.21904998     -0.00019380
N       0.80397303     -0.90025754     -0.00010563
C       0.42760855      0.41456769     -0.00003988
F       1.39757588      1.35436119     -0.00011636
C      -0.84513717      0.83957140      0.00002139
C      -1.95389235     -0.03850433      0.00003294
N      -2.89971517     -0.69878108      0.00003663
H       2.85008428     -0.49409614      0.00038446
H       2.29110275     -2.27372005      0.00019822
H      -1.04312134      1.90209184      0.00005403
