15
b3lypvtz=-193610.11220701
C       2.11753690      0.29871178      0.39838884
C       0.68754412      0.11851167     -0.01376303
C      -0.23729802      1.28136728     -0.20626846
C      -1.50379207      0.91423735     -0.01982431
C      -1.62182239     -0.54490940      0.36471901
C      -0.18074957     -1.02519517      0.31632899
O       0.42682869     -0.94043556     -0.97850958
H       2.67399748      0.83766111     -0.37172245
H       2.18339828      0.87328677      1.32448474
H       2.59765998     -0.66720564      0.54940678
H       0.10209658      2.26870445     -0.48737255
H      -2.36640784      1.55181667     -0.15901825
H      -2.25774870     -1.10342189     -0.32777484
H      -2.04850504     -0.67024449      1.36460304
H       0.14694160     -1.85889592      0.92709506
