18
b3lypvtz=-181885.11682641
C      -2.18995872      0.50935600     -0.55115098
C      -1.18737345     -0.25945904      0.28059826
C      -0.14893492      0.58672490      1.06069958
C       0.92581541     -0.11732997      0.23688253
N      -0.11003952     -0.87730060     -0.58342484
C       0.78654131     -1.57944806      0.35572777
C       2.11584729      0.55482731     -0.37554515
H      -2.73911423     -0.16602453     -1.20916800
H      -1.68812516      1.25095367     -1.17515118
H      -2.90722083      1.02700849      0.08985322
H      -1.69900089     -1.01692121      0.88100486
H      -0.09252585      0.46957130      2.14421361
H      -0.23063743      1.64843414      0.82722751
H       1.52509936     -2.19361257     -0.14391281
H       0.36105836     -2.02355858      1.25083330
H       2.57919968     -0.08793976     -1.12490676
H       2.86633862      0.78281814      0.38650552
H       1.83303097      1.49190041     -0.85999948
