13
b3lypvtz=-213780.62985458
C       3.18396581      0.31721191     -0.00002266
C       2.08561590     -0.43539934     -0.00003225
N       0.81450668      0.14027866     -0.00003595
C      -0.20481503     -0.62030253     -0.00004291
C      -1.60148953     -0.07142094     -0.00005470
N      -1.68191879      1.27883415     -0.00008853
O      -2.55745030     -0.82912759     -0.00009208
H       3.11210463      1.39621449     -0.00001333
H       4.16667619     -0.13164184     -0.00002550
H       2.14922102     -1.52372456     -0.00003898
H      -0.15591888     -1.71272143     -0.00003539
H      -2.58455565      1.71896731     -0.00014363
H      -0.83789606      1.82557569     -0.00008808
