11
b3lypvtz=-262223.16040538
C      -1.03708233     -0.99612313      0.03328786
O      -1.36226281     -2.10806383     -0.33038968
C       0.30927242     -0.43010202     -0.30120577
N       0.67962212      0.73652424      0.01151782
N       1.94614062      1.13915503     -0.27539228
F       1.11468373     -1.26947849     -0.97985465
N      -1.82008363     -0.15800562      0.75774528
H       2.39721177      0.65776792     -1.04429787
H       2.00233788      2.14275055     -0.33174659
H      -1.48824019      0.75082900      1.02693253
H      -2.74159959     -0.46525366      1.01238477
