11
b3lypvtz=-236316.98286093
C       1.31503717      1.38002011     -0.06073095
N       2.23136142      1.98101754     -0.43970068
C       0.22292971      0.59571858      0.35916762
C      -0.16816365     -0.49156719     -0.36362039
N      -1.19256055     -1.30300265      0.00803110
O       0.42879638     -0.88526191     -1.50338759
O      -0.54093938      0.97674008      1.46285463
H      -1.60719808     -1.86097512     -0.71959248
H      -1.81867926     -0.92358584      0.69862689
H       1.16303622     -0.28986418     -1.70954413
H      -0.03361998      0.82076057      2.26789598
