11
b3lypvtz=-236316.57546923
C       0.31406398     -0.12277885      0.13588614
N       1.14835415     -1.07843308      0.29742033
C       2.50247637     -0.75783226      0.02966176
O       2.94325600      0.30731392     -0.32962756
N      -1.03112487     -0.31641317      0.36601282
C      -1.79096260      0.69007682      0.17815997
O      -3.10054700      0.62707711      0.36674816
H       0.64592849      0.87188711     -0.18866001
H       3.15698266     -1.62652357      0.19015061
H      -1.47339090      1.68204772     -0.14603163
H      -3.31503626     -0.27642176      0.65237082
