16
b3lypvtz=-204438.0531072
C      -1.94340450     -0.37517393      1.39510688
C      -1.14303092      0.02938407      0.40215463
C       0.17960783     -0.63801161      0.15301734
C       1.47378705      0.15450406      0.46211660
C       1.84755181     -0.14119428     -0.99671799
O       0.53258239     -0.69372123     -1.26186473
N      -1.36342392      1.13485850     -0.41230248
H      -2.86870477      0.13426073      1.63037067
H      -1.66809052     -1.21686171      2.01265479
H       0.17045516     -1.63985890      0.58682968
H       1.29046883      1.20546057      0.66986077
H       2.11602975     -0.26875622      1.23054880
H       2.06323874      0.71556683     -1.63738879
H       2.62679980     -0.89618591     -1.12984584
H      -2.30628079      1.49078049     -0.40323789
H      -1.00758593      1.00494856     -1.34896418
