16
b3lypvtz=-227742.04022253
C      -1.23324890     -0.77148751     -1.10246266
C      -0.30883807     -0.17159064     -0.07402645
C       0.47580705      1.07957954     -0.42489659
C       1.20112614     -0.23705626     -0.27616635
O       1.96785963     -0.36440160      0.88402688
O       0.69117250      2.05105666      0.55282940
N      -0.68369057     -0.29065923      1.31906911
H      -1.38020645     -1.84096611     -0.92546459
H      -0.82518086     -0.66299504     -2.10871581
H      -2.21125054     -0.28353929     -1.08297952
H       0.32568133      1.49669811     -1.41413365
H       1.62438362     -0.73771665     -1.13783939
H       1.31499564     -0.56064894      1.58490547
H       1.45880722      1.75435782      1.06464074
H      -1.34996081     -1.03642510      1.46399065
H      -1.06745694      0.57579421      1.67722273
