14
b3lypvtz=-224567.00608345
C       2.24284954     -1.20482510     -0.02559179
N       1.75307807      0.16217396     -0.04577661
C       0.43850685      0.48901616      0.01533244
N       0.16052769      1.82950247      0.07201737
C      -0.58015503     -0.45182523      0.04622142
N      -1.85207128      0.02608802     -0.04979447
O      -2.76811135     -0.80173351      0.00948009
H       2.03550986     -1.71086198      0.92148653
H       1.78901419     -1.77950961     -0.83187764
H       3.31883125     -1.18789259     -0.18424511
H       2.39358086      0.87523636      0.26146417
H       0.74661643      2.43295047     -0.48364155
H      -0.83240137      2.01217693     -0.00726315
H      -0.40583172     -1.51445734      0.15296333
