13
b3lypvtz=-213755.58312769
C       1.60553690     -1.16281158     -0.54126458
N       1.15219383     -0.17405092      0.09805460
C      -0.10349106      0.40859975     -0.37043422
C       0.10774612      1.81327552     -0.73431981
N       0.23681316      2.92062453     -1.01626096
C      -1.15292819      0.31329565      0.76234594
O      -1.43860854     -1.03131069      1.07765164
H       2.52393390     -1.63389481     -0.19972499
H       1.12818217     -1.57897536     -1.43505333
H      -0.49973688     -0.11737822     -1.24970714
H      -0.78743943      0.87249307      1.62745760
H      -2.08268496      0.76650259      0.42120673
H      -0.68951701     -1.39636952      1.55994851
