14
b3lypvtz=-224567.70637774683
C       0.77283746     -0.30099369     -0.81196958
C      -0.27676259      0.40978682     -0.02762937
N      -1.34767493     -0.23481723      0.44259980
N      -1.65130987     -1.47035422      0.28837911
C      -0.26641904      1.81089769      0.30109852
O      -1.13503421      2.37264843      0.96286850
N       1.67975803     -1.05999286      0.06368656
H       1.28122168      0.43893800     -1.44482085
H       0.28511588     -1.01776360     -1.47596730
H      -1.95274040      0.41287812      0.96875271
H      -2.54414674     -1.61724645      0.75790436
H       0.59522974      2.37856400     -0.09446362
H       2.25342862     -1.68897024     -0.48497521
H       2.30649637     -0.43357476      0.55453636
