13
b3lypvtz=-239456.35542953
C       2.50663823     -0.19994044     -0.47495605
C       1.34911778     -0.14419891      0.17630430
O       1.24999344     -0.24130401      1.51279634
O       0.20014782      0.02302068     -0.58301534
C      -1.08881526      0.11246193     -0.20875029
C      -2.05593997      0.27347913     -1.10863741
O      -1.29636405      0.02403671      1.14436104
H       3.41947549     -0.32908917      0.08179173
H       2.53125047     -0.11686422     -1.54760001
H       0.32522698     -0.17750436      1.78875484
H      -1.81460965      0.33420598     -2.15592558
H      -3.08765314      0.34467921     -0.80099058
H      -2.23856815      0.09671747      1.32746700
