12
b3lypvtz=-226215.47985313
C       1.66055761      0.11389657      0.60294473
C       0.60699771      0.30182920     -0.40750765
O       1.22081881      1.42088049      0.22899860
C      -0.82729315      0.07570439     -0.05571059
N      -1.50069046      0.75516589      0.77870581
C      -1.54007203     -1.04826601     -0.74866930
O      -1.01594481     -1.75804391     -1.57048421
H       2.66154709     -0.15110331      0.28114813
H       1.38126561     -0.19894664      1.60344947
H       0.86664192      0.15118267     -1.44915834
H      -0.92087999      1.50267881      1.17201047
H      -2.59294831     -1.16497813     -0.43572712
