15
b3lypvtz=-214519.1884878
C       2.51532276     -0.33979455      0.68864264
N       1.93036920      0.29243848     -0.49318370
C       0.64385298      0.90242192     -0.25929424
C      -0.54761478     -0.03974509     -0.17297277
O      -0.47186437     -1.21950450     -0.43168280
C      -1.88484543      0.57161949      0.21374446
N      -2.94934270     -0.10243659      0.30763775
H       3.45811915     -0.80935261      0.40925296
H       2.73882903      0.42636018      1.43408124
H       1.87918353     -1.10198711      1.15670988
H       1.84120883     -0.39480375     -1.23200870
H       0.40751658      1.61558474     -1.06242860
H       0.68036785      1.50775627      0.65290933
H      -1.91093235      1.64174283      0.42369202
H      -2.74020829     -1.08158471      0.07675053
