18
b3lypvtz=-181880.06391305
C      -2.35536486      0.06599569     -0.14988049
C      -0.88270380      0.30840178     -0.41114831
C      -0.07856802      1.05584771      0.68842711
C       0.86588016     -0.15547944      0.71514242
N      -0.03336227     -0.92399365     -0.24037982
C       1.09002806     -1.00104698     -1.22557748
C       2.02913244     -0.18370525     -0.30170936
H      -2.77504402     -0.60168462     -0.90442785
H      -2.91426234      1.00522497     -0.17263277
H      -2.49978702     -0.39901358      0.82662617
H      -0.75419581      0.74894010     -1.40517422
H       0.36772047      2.01052244      0.40948778
H      -0.64070783      1.19068726      1.61268971
H       1.06702156     -0.60801527      1.68667803
H       1.40701520     -2.03218175     -1.38491584
H       0.85637469     -0.55943709     -2.19708174
H       2.91844982     -0.71489566      0.03391315
H       2.33237356      0.79383333     -0.67792603
