19
b3lypvtz=-192727.89973756
C      -2.33788837      1.37970285      0.03830557
C      -2.49706169     -0.13191600      0.19451451
C      -1.35060164     -0.94330389     -0.43448878
C      -0.03861088     -0.77326118      0.26611680
N       0.99674070     -0.34729409     -0.33867754
N       2.18713366     -0.29899343      0.33430149
C       3.11191126      0.69815563     -0.17703211
H      -2.30343563      1.66223088     -1.01609409
H      -3.17034764      1.91342727      0.49979658
H      -1.41530540      1.73441589      0.50048980
H      -2.57770303     -0.38681777      1.25611688
H      -3.43735080     -0.44899131     -0.26357776
H      -1.62559404     -2.00417520     -0.41446139
H      -1.21824481     -0.66612909     -1.48199311
H       0.00368063     -1.04756898      1.32933070
H       2.08520317     -0.27353387      1.34662824
H       2.75973844      1.72999713     -0.05270531
H       3.27080870      0.51704677     -1.23873250
H       4.06485637      0.58696639      0.34046404
