17
b3lypvtz=-191977.21937834
N      -2.09315956     -1.39133869      0.22271513
C      -1.91551221     -0.13794824      0.21069281
C      -1.06551287      0.67424071     -0.72932722
C       0.00000089      1.51120916     -0.00000125
C       1.06551331      0.67424003      0.72932589
C       1.91551122     -0.13795179     -0.21069293
N       2.09315682     -1.39134251     -0.22271305
H      -1.56444682     -1.83924506     -0.53039807
H      -2.43770671      0.44018537      0.98024680
H      -1.72205727      1.35699633     -1.27896889
H      -0.60024300      0.01281203     -1.46433505
H       0.48884578      2.16753960     -0.72420624
H      -0.48884295      2.16754145      0.72420278
H       1.72205891      1.35699541      1.27896642
H       0.60024241      0.01281327      1.46433480
H       2.43770646      0.44017973     -0.98024799
H       1.56444359     -1.83924680      0.53040105
