18
b3lypvtz=-181876.38256597
C       2.04970446     -1.44058461      0.36213934
C       1.31100108     -0.59596230     -0.06532059
C       0.37267021      0.43112825     -0.56241343
C       0.86591762      1.84153772     -0.21207848
N      -1.02001343      0.21269526     -0.14449659
C      -1.23180058      0.20147607      1.29700149
C      -1.61631843     -0.95414990     -0.77933709
H       2.70919833     -2.18495670      0.73303804
H       0.36353283      0.35590092     -1.65370082
H       0.99219878      1.97113299      0.86174770
H       1.83207882      2.02350446     -0.68215983
H       0.14753895      2.57603683     -0.57552499
H      -0.86022174      1.12120497      1.74579637
H      -0.74911101     -0.64926442      1.80161061
H      -2.30327070      0.14849627      1.49291570
H      -1.50617337     -0.88243137     -1.86254198
H      -1.17230772     -1.90677616     -0.45105762
H      -2.68242310     -0.98122725     -0.55035484
