16
b3lypvtz=-181108.97393369
C       1.72565495      0.90730609     -0.43546745
C       1.10005832     -0.07624211      0.55227240
C      -0.36436350     -0.37464667      0.27134897
C      -0.73548912     -1.45906645     -0.68686256
N      -0.83746732     -1.69400046      0.75642010
C      -1.27443719      0.73918130      0.39235445
C      -2.02165078      1.67070865      0.52233116
H       1.21415897      1.87049710     -0.41385579
H       1.67708610      0.52681625     -1.45771569
H       2.77491973      1.08026564     -0.19312072
H       1.18389531      0.31002610      1.57123280
H       1.63157557     -1.02914556      0.53454682
H       0.05838795     -2.00439965     -1.18324910
H      -1.64303676     -1.33786630     -1.26421689
H      -1.80485713     -1.62186222      1.05461983
H      -2.68453509      2.49232829      0.63116166
