11
b3lypvtz=-264587.99037474
C      -0.31420566      0.09203633      0.09748328
C      -1.57726803     -0.30165965     -0.11357729
O      -2.68125070      0.25993783      0.41491682
C       0.81375730     -0.56620880     -0.50901048
N       2.05514383     -0.31437793     -0.40878845
O       2.28475557      0.78755812      0.43946392
F       0.52176589     -1.61121537     -1.30781487
H      -0.08280465      0.93091227      0.73965139
H      -1.82502022     -1.13758941     -0.75221481
H      -2.43847508      1.00321420      0.98115206
H       3.24360173      0.85739241      0.41873843
