18
b3lypvtz=-205197.10958211
N      -2.96514002     -0.23742337      0.09280586
C      -1.51349783     -0.45317358      0.16065482
C      -0.78301011      0.85728315     -0.11785617
C       0.73227243      0.78669437     -0.11689552
C       1.50482150      0.11808024      1.04233589
C       2.16544534     -0.71810671     -0.06450357
O       1.26656192     -0.18374024     -1.06364303
H      -3.23497081      0.00401083     -0.85478250
H      -3.45762321     -1.09397308      0.31774570
H      -1.14698414     -1.21957269     -0.53231786
H      -1.28603294     -0.79859096      1.17183460
H      -1.09165446      1.23091812     -1.10077743
H      -1.10081017      1.61034206      0.60950916
H       1.13022817      1.78118198     -0.34867142
H       2.15822730      0.76978436      1.61805676
H       0.88411770     -0.45852507      1.72441813
H       3.20517668     -0.45344729     -0.27813256
H       2.08153666     -1.80357612      0.01710512
