19
b3lypvtz=-195145.70979843
C       1.57107991     -1.07915241     -0.99608658
C       0.96122803     -0.31427260     -0.09301204
C       1.42050006     -0.23160185      1.33714861
C      -0.22204823      0.54665053     -0.49310365
O       0.07795735      1.93785722     -0.29341306
C      -1.50381064      0.27516245      0.29399441
C      -2.06869232     -1.12802053      0.08495495
H       2.42754889     -1.69109127     -0.74118535
H       1.22785201     -1.12475601     -2.02250246
H       0.67960081     -0.66091982      2.01651994
H       2.35799451     -0.76682854      1.48198605
H       1.55806983      0.80806900      1.63888316
H      -0.42757288      0.36726055     -1.55578495
H       0.86815291      2.14656569     -0.80221901
H      -1.31542443      0.45802354      1.35402885
H      -2.23319126      1.02465732     -0.02027795
H      -2.99647383     -1.25756832      0.64332819
H      -1.37068670     -1.89957696      0.41386810
H      -2.28873803     -1.31373500     -0.96861720
