14
b3lypvtz=-224583.70480081
C       1.18042479      1.06618759      0.69629971
C       0.36064438      0.03499959     -0.01060763
N       0.84192650     -0.91952473     -0.71151081
O       2.23860405     -0.89488725     -0.75421999
C      -1.13489487      0.06767448      0.08558191
N      -1.66382445      0.93420523      0.86493587
N      -1.79296149     -0.83243755     -0.71591582
H       1.77317924      1.63034322     -0.02614388
H       1.88678057      0.58247133      1.37265759
H       0.53280158      1.73691781      1.25017597
H       2.44809529     -1.66001551     -1.29953951
H      -2.68122738      0.87337726      0.85712156
H      -2.74990720     -1.04573234     -0.49506640
H      -1.23964101     -1.57357911     -1.11376857
