13
b3lypvtz=-213758.53633787
C      -2.09870100     -0.65325012     -0.18653015
N      -0.87823953     -0.81276796     -0.47298848
C      -0.05325543      0.31731726     -0.67588478
C      -0.37337943      1.30667672     -1.52053124
N       1.18073508      0.33209049     -0.01757415
C       1.56184839     -0.65916970      0.67249204
O       2.74004514     -0.65067334      1.31496556
H      -2.55478013      0.33151400     -0.04640736
H      -2.73587447     -1.52732679     -0.07348043
H      -1.29707265      1.29195120     -2.07811360
H       0.32598253      2.11047276     -1.69134849
H       1.02579564     -1.59244497      0.81726533
H       3.15689586      0.20541045      1.13153574
