15
b3lypvtz=-242816.66197296
N      -0.59830250      1.68913802      0.14673462
C      -0.22487520      0.30223825      0.00021308
C      -0.95034201     -0.50364473     -1.04120770
F      -2.31489281     -0.56299376     -0.71628510
C       0.18356478     -0.40017600      1.28112283
C       1.21950288     -0.00847783      0.26505876
O       1.83114796     -0.99076544     -0.53029872
H      -1.58466653      1.75822833      0.37170372
H      -0.45093927      2.19526897     -0.72024948
H      -0.57540398     -1.52295112     -1.10798880
H      -0.87925109     -0.02771095     -2.02260822
H       0.12433575      0.16795419      2.19782808
H      -0.05587389     -1.45185274      1.35999996
H       1.84012370      0.85132780      0.49376172
H       2.43607221     -1.49568299      0.02221525
