19
b3lypvtz=-192738.68808752
C       1.33660569     -1.46610494      0.30561830
C       1.51188121     -0.16642093      0.05883360
N       2.69879788      0.38627676     -0.43335145
C       0.48199016      0.89375318      0.39969168
N      -0.85314800      0.37847347      0.64207563
C      -1.65326725      0.16200009     -0.56014953
C      -3.04664516     -0.33994654     -0.20912581
H       2.09881985     -2.19552466      0.06319682
H       0.43256070     -1.80470264      0.78552734
H       2.57325439      1.16514066     -1.06354019
H       3.35256645     -0.28600128     -0.80495017
H       0.49296475      1.64932546     -0.40846936
H       0.82639327      1.41370583      1.29777915
H      -1.34754510      0.99100162      1.27706122
H      -1.73173369      1.07798062     -1.17059528
H      -1.13769902     -0.57853008     -1.17460359
H      -3.58451500      0.38655496      0.40573145
H      -2.99101732     -1.27544232      0.34819690
H      -3.63630180     -0.50837525     -1.11133068
