15
b3lypvtz=-191218.74715867
C      -3.06134069     -0.17262444      0.87492364
C      -1.80678898     -0.46870537      0.13016893
N      -0.68999727      0.06541090      0.43315395
C       0.42484304     -0.27555303     -0.32217669
C       1.63636737      0.24218365     -0.07083293
C       2.81457842     -0.10294018     -0.85064653
N       4.00268134      0.33087665     -0.69098171
H      -3.48175097     -1.09187728      1.29321100
H      -3.81885636      0.23394094      0.19844501
H      -2.87320244      0.53744438      1.67696493
H      -1.88492467     -1.17861399     -0.70544485
H       0.29502981     -0.98768530     -1.14146415
H       1.74600809      0.94725086      0.74621712
H       2.65462344     -0.81544076     -1.66357042
H       4.04272989      0.98799373      0.09203269
