15
b3lypvtz=-193621.32332264
C       2.11380975     -0.58216167      0.07117904
C       0.62696226     -0.50594375      0.06317969
C      -0.27753386     -1.46275118     -0.19149507
C      -1.63974440     -0.90134900     -0.10735951
C      -1.57250312      0.40045385      0.19547465
C      -0.12208754      0.78259174      0.38752578
O       0.31976446      1.93645919     -0.32298553
H       2.54400993      0.20263319     -0.55692797
H       2.51645942     -0.42645466      1.07673481
H       2.46732205     -1.54866825     -0.28732519
H      -0.05995983     -2.49523479     -0.42824815
H      -2.54208585     -1.47508091     -0.26541023
H      -2.38994117      1.09242863      0.32804438
H       0.04471240      1.02232367      1.44522360
H       0.09660450      1.80781095     -1.25147430
