15
b3lypvtz=-191219.13649065
C       2.47031731     -1.07883141     -0.11301392
C       1.17590109     -0.86584332      0.12815697
C       0.50303668      0.43395819      0.04668286
N       1.33078847      1.53922591     -0.05935729
C      -0.85150885      0.56846792      0.01978188
C      -1.82818475     -0.49753071     -0.01340449
N      -3.10153678     -0.37615909     -0.04070641
H       2.89565976     -2.06800486     -0.01614045
H       3.13869972     -0.29422906     -0.44224375
H       0.55666812     -1.70325008      0.41551512
H       2.19757554      1.49273517      0.45249420
H       0.87677013      2.43515835      0.01725399
H      -1.25827842      1.57638333     -0.00461165
H      -1.45153789     -1.52029635     -0.01511001
H      -3.36713114      0.61176100     -0.04663503
