12
b3lypvtz=-179611.39168824
C       2.43890279     -0.19388216      1.04632952
C       1.10866740     -0.10083640      0.46949207
C       0.00883895     -0.02057255     -0.01168103
C      -1.30537338      0.04446709     -0.55980066
C      -1.69123786      0.94067951     -1.48162235
C      -2.24972911     -0.92611600     -0.07141496
N      -3.00172633     -1.70489440      0.32239251
H       3.12740305     -0.69011786      0.35915334
H       2.41993089     -0.76607421      1.97545929
H       2.83981887      0.79730235      1.26644682
H      -2.70136446      0.94533635     -1.86333060
H      -0.99413081      1.67470827     -1.85781067
