20
b3lypvtz=-205975.18524167
C       2.89850364     -0.12125383     -0.07950726
N       1.55108918      0.25568133      0.32748221
C       0.51464551     -0.25207194     -0.56248340
C      -0.91653170     -0.02752399     -0.03597590
C      -1.14859113     -0.77315805      1.27783713
C      -1.23173619      1.45866417      0.10970214
O      -1.83130238     -0.50052942     -1.04118877
H       3.62539543      0.34399028      0.58676174
H       3.15081572      0.16000346     -1.11399485
H       3.01671898     -1.20338445      0.00557584
H       1.48979060      1.26472912      0.37843334
H       0.67231287     -1.33115563     -0.66654432
H       0.56756846      0.17185092     -1.57771253
H      -2.16236173     -0.59823048      1.63919300
H      -1.01777448     -1.84947964      1.13466969
H      -0.43443935     -0.45324088      2.03546016
H      -1.06176947      1.97938973     -0.83379006
H      -2.27879079      1.58744275      0.38347292
H      -0.61952287      1.91866180      0.88588819
H      -1.74870830     -1.45820027     -1.09941027
