17
b3lypvtz=-243595.9720566
C      -0.35231674      1.29067114      0.76657607
C      -0.05081031     -0.04756435      0.09087633
N       0.92948959     -0.78906350      0.90267556
C       0.61217496      0.17839931     -1.28570608
O       1.88387339      0.78173408     -1.15424383
C      -1.35837966     -0.82024469     -0.07924917
F      -1.10138798     -2.11560678     -0.54630085
H      -1.10637690      1.84815632      0.20874056
H       0.55143584      1.89566054      0.80955724
H      -0.72483581      1.14429201      1.78324727
H       0.91939956     -1.77159679      0.65138661
H       0.71639275     -0.72342939      1.89054022
H      -0.00349521      0.84488146     -1.89312108
H       0.68359378     -0.78256708     -1.80945153
H       2.30033270      0.32587299     -0.40763619
H      -1.87900309     -0.92045756      0.87594167
H      -2.01998687     -0.33903770     -0.80373281
