15
b3lypvtz=-191205.12368954
C      -2.54072930     -0.20324536      0.20944996
N      -1.61143804      0.42460058     -0.37285918
C      -0.25943529      0.11906922     -0.09089738
C       0.53223923      1.34244259      0.20321761
N       1.75717668      1.58285393     -0.02821908
C       0.20982664     -1.13934335     -0.14589045
C       1.60779984     -1.61668695      0.10220836
H      -2.35786378     -0.96456914      0.97589859
H      -3.57354548      0.01321822     -0.05221274
H      -0.04984057      2.13957715      0.66953883
H       2.20658614      0.80441572     -0.50838728
H      -0.50514120     -1.90755077     -0.42109741
H       2.17714062     -0.94314270      0.74176535
H       1.58346705     -2.59739059      0.58073467
H       2.16481946     -1.74380154     -0.83214386
