14
b3lypvtz=-203660.74354887
C      -2.78914834      0.20839776     -0.34346484
N      -1.33994835      0.20254642     -0.30381625
C      -0.77584180     -0.41658974      0.63335249
O       0.55830027     -0.50202174      0.78974193
C       1.34429211      0.17716966     -0.20886409
C       2.75337164     -0.00531074      0.09805624
C       3.92439068     -0.13303574      0.31719130
H      -3.13032563     -0.22026470     -1.28766342
H      -3.25544926     -0.34970408      0.47906916
H      -3.15112144      1.23775798     -0.31020743
H      -1.27921938     -0.96118809      1.43613824
H       1.10185869     -0.22432605     -1.19504078
H       1.07851316      1.23626935     -0.22000948
H       4.96032766     -0.24970030      0.51649151
