12
b3lypvtz=-252147.8995614
C       2.07420334      0.61710226     -0.72267844
C       1.17227800     -0.14360755     -0.13199245
F       1.42442799     -0.79579441      1.01385055
O      -0.06111515     -0.41632985     -0.60499808
C      -1.15945362      0.19076477      0.03391442
N      -1.14192746      1.17825233      0.81372268
N      -2.29219463     -0.43878230     -0.39635573
H       1.82200766      1.12996671     -1.63617840
H       3.06339730      0.71289739     -0.30504747
H      -0.21615354      1.57102468      0.94559595
H      -3.12504626     -0.20005087      0.11371358
H      -2.19990264     -1.39848615     -0.68189662
