15
b3lypvtz=-216915.87916511
C       2.25940587      0.74748617      0.11926207
C       1.13147934     -0.25808358      0.03589597
O       1.28826895     -1.35627378     -0.44650788
C      -0.20704558      0.19996841      0.57921140
C      -1.38265914     -0.78374032      0.50266191
O      -2.13439160      0.10727018     -0.36125099
C      -1.06227969      1.06451309     -0.39003191
H       2.55106040      0.87933422      1.16475337
H       1.94205031      1.72641572     -0.24672863
H       3.11600483      0.39593741     -0.45025054
H      -0.06731225      0.67237266      1.55148313
H      -1.14083487     -1.72502730      0.00902264
H      -1.90737323     -0.97185650      1.44092468
H      -0.64753742      1.18455204     -1.39530394
H      -1.36789092      2.04030657     -0.00579928
