19
b3lypvtz=-192727.20665962
C      -1.16983467      1.80046289     -0.20019667
C      -0.71267059      0.68326082      0.74084097
C      -0.07082474     -0.50160583      0.04048073
C      -0.94016063     -1.59951149     -0.44322923
N      -0.07656223     -1.80607899      0.73613856
C       1.24066581     -0.24454046     -0.67611771
N       2.26020831      0.18474352      0.28503975
H      -1.67284793      2.59170022      0.35787720
H      -0.32608130      2.25594037     -0.71987321
H      -1.86722992      1.42757624     -0.95330987
H      -1.57243455      0.31922207      1.31204032
H       0.00329300      1.08584248      1.46047743
H      -2.00876881     -1.50397172     -0.28801719
H      -0.66235505     -2.17533721     -1.31799133
H      -0.63317150     -1.74484623      1.58295276
H       1.10905052      0.54994809     -1.41451700
H       1.51018231     -1.15546466     -1.22502784
H       3.12345221      0.41776761     -0.18988727
H       2.46608975     -0.58510770      0.91231962
