13
b3lypvtz=-237037.5869922729
C      -1.54322638     -0.04172800     -0.24985635
N      -0.22103393     -0.10717801     -0.22221688
C       0.60668357     -1.13883575     -0.47955185
O       1.87571106     -1.17133764      0.11648792
C       2.56550975     -0.06630561      0.37824068
O       2.18495313      1.07093294      0.20106061
N      -2.11485536      1.23827897     -0.38069485
H      -2.09765494     -0.96883056     -0.33998941
H       0.26305300      0.78249634     -0.07071195
H       0.19679944     -2.12869625     -0.59419551
H       3.54141596     -0.33815007      0.79245206
H      -2.97517571      1.33778483      0.13943539
H      -2.28217960      1.53156880     -1.33910601
