15
b3lypvtz=-214536.35493817
C      -2.52362989     -0.28289542      0.67929489
C      -1.68809645     -0.34009549     -0.60146301
N      -0.26548339     -0.49441590     -0.36910402
C       0.59230626      0.51857084     -0.08946023
N       0.40801814      1.78625696     -0.02352470
C       2.00260600      0.05720611      0.17267637
O       2.33104681     -1.10339143      0.17118467
H      -3.58033770     -0.15175106      0.43935398
H      -2.41610335     -1.20457799      1.25258488
H      -2.21312776      0.54705073      1.31463869
H      -1.84509754      0.56520590     -1.19366482
H      -2.01375605     -1.17388468     -1.22460980
H       0.13326066     -1.41903500     -0.30772859
H      -0.55939791      2.05481404     -0.19474661
H       2.70307715      0.88438837      0.37131732
