15
b3lypvtz=-219493.159564
F      -1.32720771      1.08094308     -1.89465095
C      -1.62703103      0.50256822     -0.65125576
C      -0.38551388      0.14872337      0.07351619
C      -0.28128575     -0.96063159      1.07115618
C       0.65463104     -0.94764454     -0.11186575
C       1.71228363      0.13615019      0.07366191
N       0.64934893      1.16006471      0.39077020
H      -2.20965803      1.24078555     -0.09304203
H      -2.24091538     -0.38104103     -0.83220126
H       0.08102298     -0.72893890      2.06599760
H      -1.05466802     -1.71669817      1.02529745
H       0.69845201     -1.76387722     -0.81796809
H       2.43527419     -0.00699847      0.87915884
H       2.24146673      0.35990364     -0.85256619
H       0.65380029      1.87679116     -0.32610833
