20
b3lypvtz=-182673.64318562
C       2.78995741     -0.85687311     -0.18981763
C       1.55434111     -0.02449343      0.03459724
C       1.77266983      1.45797023     -0.10612469
C       0.38748869     -0.60013962      0.33649384
C      -0.94062807      0.05137176      0.58754122
C      -2.00807315     -0.36894695     -0.42919609
N      -3.28896139      0.27452353     -0.12257055
H       3.58006787     -0.58505767      0.51737617
H       2.58732885     -1.92194327     -0.07991534
H       3.19965789     -0.68849041     -1.19075973
H       2.16773410      1.69354376     -1.09906611
H       2.52125030      1.80473793      0.61313428
H       0.86856676      2.04322275      0.04266246
H       0.37787286     -1.68581877      0.40491077
H      -1.29342035     -0.23433242      1.58705851
H      -0.87472352      1.13854674      0.58620533
H      -1.69758954     -0.04222162     -1.42428196
H      -2.06058536     -1.46734399     -0.46106452
H      -3.97889223      0.04980489     -0.82926520
H      -3.65430405     -0.07033731      0.75819001
