8
b3lypvtz=-219899.89676598
N      -2.86943062     -0.02002699      0.00004648
C      -1.71919662     -0.01727804      0.00002873
C      -0.29755120     -0.00293553      0.00000193
N       0.44824699     -1.10325951     -0.00022424
N       1.65549236     -0.57896666     -0.00002973
H       2.49427828     -1.14079881      0.00026457
N       1.68945627      0.74717924     -0.00017878
N       0.44999755      1.13420930      0.00012005
