19
b3lypvtz=-192732.24347109
C       2.30488520     -1.04335866     -0.12227054
C       1.20220029     -0.64089958      0.52885998
N       0.50528492      0.53264616      0.35886663
C       0.95157478      1.46916757     -0.64868297
C      -0.86613952      0.63455437      0.82898724
C      -1.93866963      0.18327576     -0.18015941
N      -1.89685480     -1.21531787     -0.59321516
H       2.78360964     -1.96596930      0.16715699
H       2.75726752     -0.47991394     -0.92471064
H       0.79134320     -1.26886407      1.31176194
H       0.39439841      2.39999214     -0.55063285
H       2.01245649      1.68625447     -0.50799851
H       0.82240721      1.09545160     -1.67322683
H      -0.95387483      0.03444390      1.73855116
H      -1.06037517      1.67448679      1.11267526
H      -1.87140280      0.80213789     -1.07872230
H      -2.92168709      0.38596685      0.25507813
H      -1.00116847     -1.44344629     -1.00778071
H      -2.01702135     -1.83145779      0.20246259
