15
b3lypvtz=-214502.27152264
N       2.47933326      0.63405396      0.26800052
C       1.97294255     -0.36418365     -0.31331338
O       0.70458773     -0.84398893     -0.30259941
C      -0.26068777     -0.16605894      0.49750929
C      -0.87482570      1.10361021     -0.14137826
N      -2.08184118      0.32210061     -0.50545247
C      -1.64596209     -0.81529230      0.34228600
H       1.81238322      1.16213604      0.82622426
H       2.58414069     -1.00162866     -0.94615449
H       0.11599314     -0.06573643      1.51575164
H      -1.03974828      1.90284765      0.58835525
H      -0.33322358      1.50978103     -0.99682649
H      -2.96164630      0.74334939     -0.24011703
H      -1.64489337     -1.77851913     -0.16915644
H      -2.17248132     -0.91464586      1.29591602
