18
b3lypvtz=-181916.58852241
C      -1.74186283      0.24973939     -0.97450758
C      -0.58228247      0.01865675     -0.00785886
C      -1.10357312     -0.35982919      1.38533028
C       0.38398522      1.24096701      0.08506848
C       1.74978117      0.59982308      0.11846090
C       1.63104479     -0.68344247     -0.22509047
N       0.31541149     -1.05665484     -0.52240986
H      -1.36682836      0.47986894     -1.97137845
H      -2.36803637      1.07897350     -0.63825624
H      -2.37384381     -0.63826927     -1.04761159
H      -1.69606732     -1.27732250      1.34297340
H      -0.27345881     -0.51529876      2.07610308
H      -1.74107523      0.42879155      1.79015419
H       0.16302599      1.85747521      0.95993603
H       0.27148108      1.88735681     -0.79290931
H       2.67547897      1.12244733      0.29639522
H       2.42150275     -1.41181383     -0.33888788
H       0.05239687     -1.99199771     -0.24260132
