15
b3lypvtz=-191210.64888536
C      -0.16366423     -1.38901971     -0.23774613
C       1.12829163     -0.57081808     -0.40302472
C       0.92554762      0.65527980      0.47397125
N       1.85629643      1.40795496      0.86927619
N      -0.46274448      0.81511725      0.81710617
C      -1.16965180     -0.38402884      0.30215633
C      -1.32972830      0.90522846     -0.39114926
H      -0.49711412     -1.85892709     -1.16357811
H      -0.02442260     -2.18218789      0.49824337
H       1.27744614     -0.24663552     -1.43480949
H       2.02770679     -1.10724317     -0.11066564
H       1.47588336      2.15976178      1.44518416
H      -1.97454658     -0.74651935      0.92854720
H      -0.84468044      1.04745695     -1.34984690
H      -2.22461941      1.49458042     -0.24366443
