17
b3lypvtz=-191966.74747514
C       1.36636782      0.67945185      0.44302568
C       1.45825295     -0.71883229     -0.17121172
N       0.21129422     -1.47827097     -0.11057355
C      -1.01630420     -0.77813092     -0.32367230
N      -1.66204584      0.05360811      0.73063617
C      -1.02087857      0.70221388     -0.42457945
C       0.27074589      1.47969768     -0.26961701
H       2.32408180      1.19664257      0.34839499
H       1.15910435      0.60200908      1.51488367
H       1.75748016     -0.61507958     -1.22094816
H       2.23464715     -1.31019445      0.31529224
H       0.16560512     -2.09733004      0.68544289
H      -1.74797320     -1.34088732     -0.89271659
H      -1.04442387      0.10242504      1.53557341
H      -1.73476191      1.15991657     -1.10120865
H       0.07150987      2.42016687      0.25156203
H       0.62337926      1.74975691     -1.27028866
