16
b3lypvtz=-204435.24698524
C      -2.14739569     -0.33442543      0.17604414
C      -0.79684754     -0.14949891     -0.47169475
O      -0.62221497      1.17405350     -1.04241264
C       0.63354081      1.36458651     -0.35500562
C       0.45331556      0.05772188      0.43233422
C       1.50646628     -1.00955059      0.40601458
N       2.70189451     -0.94364575     -0.00430913
H      -2.93872410     -0.24129309     -0.56961215
H      -2.31331618      0.41757530      0.94879317
H      -2.22310257     -1.32661638      0.62742074
H      -0.63193309     -0.91285773     -1.24012906
H       0.64420428      2.28734350      0.22704675
H       1.47536931      1.37367914     -1.05434758
H       0.15653014      0.22696725      1.47042867
H       1.17656508     -1.97505472      0.80237427
H       2.92564815     -0.00898447     -0.35294563
