15
b3lypvtz=-193613.19334128
C       3.44869463      0.18707284      0.00005871
C       2.04340173     -0.19381716     -0.00008871
C       0.88607435     -0.53984166     -0.00018390
C      -0.48372717     -0.90150135     -0.00023873
C      -1.46349181      0.02400740      0.00004028
C      -2.92311623     -0.27368381      0.00009335
O      -1.20815605      1.35573018      0.00033243
H       3.96487179     -0.20018798     -0.88137591
H       3.56138229      1.27308733     -0.00235996
H       3.96363735     -0.19614014      0.88399424
H      -0.75166997     -1.94869995     -0.00049964
H      -3.10306674     -1.34624166     -0.00015617
H      -3.39927010      0.16681514      0.87903421
H      -3.39943646      0.16725975     -0.87853387
H      -0.24649561      1.47795606      0.00028766
