15
b3lypvtz=-191136.08438814
N       1.06821077     -0.04647816      0.21415634
C       0.54057846     -0.84424392     -0.59448607
C       1.03322882     -1.74188169     -1.82391788
C       0.00664907     -2.74503850     -1.21584659
N      -1.27518259     -3.58552262     -1.37039703
C      -1.82788201     -2.69589606     -0.24944283
C      -0.79193207     -1.60343514     -0.69091241
H       2.03149058      0.17039232     -0.04480999
H       0.73447531     -1.29593396     -2.77204548
H       2.08613351     -2.01911086     -1.84847728
H       0.53063697     -3.24742652     -0.39925036
H      -1.75094957     -3.30851251     -2.22813051
H      -1.61178166     -3.15850805      0.71110535
H      -2.88696351     -2.45846808     -0.33094238
H      -1.26371209     -1.14813624     -1.57180288
