18
b3lypvtz=-205226.4211897
C       3.07691332     -0.57713172     -0.14074412
C       1.85896034      0.33596541     -0.13429036
N       0.65596223     -0.42197109      0.20031312
C      -0.45172079      0.17475672      0.25189952
O      -0.55664422      1.52275574     -0.00104291
C      -1.73560753     -0.53960910      0.58192357
C      -2.73784796     -0.56752474     -0.58017216
H       3.98043168     -0.01886995     -0.39364747
H       2.95219397     -1.37881236     -0.86988374
H       3.21879551     -1.03691434      0.83810865
H       2.00103924      1.15065210      0.58415684
H       1.74175089      0.81513587     -1.11233778
H      -1.47193617      1.80671110      0.09028511
H      -1.46841101     -1.55259311      0.87297974
H      -2.19458553     -0.05996157      1.45357766
H      -2.30674263     -1.06484008     -1.44930532
H      -3.63982875     -1.10786943     -0.29222830
H      -3.04400159      0.43443757     -0.88949104
