13
b3lypvtz=-192828.33151817
C       2.66499340     -0.55736522      0.12907948
C       1.55311028     -0.26234911     -0.21232655
C       0.19830494      0.10052923     -0.62893390
C      -0.42310915      1.27817908      0.18366074
O      -1.48512133      0.71783706      0.99278617
C      -1.68019182     -0.55867558      0.55813955
C      -0.82431255     -0.99344152     -0.35761196
H       3.64624935     -0.82256913      0.43413723
H       0.23178649      0.36372458     -1.68958588
H       0.29036907      1.76138243      0.84564485
H      -0.86786273      2.01924637     -0.48147967
H      -2.50794298     -1.07123783      1.02379265
H      -0.79627297     -1.97526037     -0.79730270
