11
b3lypvtz=-210589.6959432
N      -3.15843003     -0.84041113      0.73640805
C      -2.09550153     -0.48205800      0.47514068
C      -0.76529958      0.00821915      0.14852084
N      -0.51391094      1.27399330      0.09453831
C       0.22767935     -1.01301376     -0.10420063
N       1.47781855     -0.81272575     -0.41238124
N       1.95372091      0.40009224     -0.52228959
H      -1.33463473      1.83703611      0.30187751
H      -0.07554405     -2.04761514     -0.03606215
H       2.92645026      0.46506714     -0.76224958
H       1.35755178      1.21151585     -0.36930221
