10
b3lypvtz=-279699.4215297
N      -2.10893458     -0.10904691     -0.00019108
C      -0.81973491     -0.54125478     -0.00010441
O      -0.49243869     -1.71171248     -0.00005519
C       0.18598866      0.55820077     -0.00009859
F      -0.32372866      1.82273671     -0.00017042
C       1.51247036      0.46323831     -0.00004048
F       2.16510496     -0.69037729      0.00003104
H      -2.34388387      0.86667646     -0.00024911
H      -2.83780062     -0.80091893     -0.00022288
H       2.14989735      1.33752514     -0.00005288
