17
b3lypvtz=-191961.2095848
N       2.65137170      0.96797584      0.26052100
C       2.37784164     -0.25970179      0.13939536
C       1.02278705     -0.87211008     -0.13685370
N       0.01950197      0.12218991     -0.47900158
C      -1.34163921     -0.33776482     -0.40789007
C      -2.41490953      0.69518239     -0.22919217
C      -2.05115718     -0.21957569      0.91248687
H       1.79292036      1.51687138      0.15469224
H       3.19203866     -0.98120694      0.24629728
H       1.14744657     -1.65747331     -0.90020630
H       0.69725770     -1.39369362      0.76929633
H       0.21050854      0.51198648     -1.39485944
H      -1.60348403     -1.20494738     -1.01405608
H      -2.09208117      1.72416431     -0.15928500
H      -3.35936052      0.54452924     -0.73270984
H      -1.48934326      0.21078516      1.72933537
H      -2.74714328     -0.99775508      1.19251072
