15
b3lypvtz=-240230.50425403
C       1.41081226      0.79828321      1.15728437
C       0.94744378     -0.32136611      0.28962915
C      -0.13554823     -0.35373064     -0.49773683
C      -1.18680931      0.68177396     -0.68903515
O      -2.49889384      0.10719975     -0.52039936
O      -0.31666804     -1.49935846     -1.27119899
O       1.79970862     -1.39208857      0.33258635
H       0.71810866      1.63567323      1.15870591
H       1.53735465      0.44532393      2.18329509
H       2.38532140      1.15963347      0.81956589
H      -1.18822382      1.04514795     -1.71945857
H      -1.04107052      1.53618668     -0.02760791
H      -2.59148696     -0.14766720      0.40444974
H      -1.26921966     -1.61876520     -1.37766620
H       1.42917100     -2.07624604     -0.24241350
