10
b3lypvtz=-307990.61500046
F      -0.63293362     -0.28651632      1.29779765
C      -0.66109257     -0.01301424     -0.01491125
F      -1.33651402      1.13914608     -0.17791393
F      -1.36965635     -0.98538207     -0.62663798
C       0.71757981      0.07424443     -0.62268193
C       1.85460512     -0.61760998     -0.01778845
O       1.68115262      0.79847469      0.11822512
H       0.69142649      0.26238762     -1.69148280
H       1.71021470     -1.18692028      0.89224041
H       2.67516782     -0.92554194     -0.65568784
