13
b3lypvtz=-265399.46126018
N       1.81832548      0.65719452     -0.54155191
C       1.06766966     -0.27523270      0.08442197
O       1.37684906     -1.44620921      0.20586317
C      -0.24270779      0.25676146      0.69962995
O      -0.52389383      1.60834470      0.35994850
C      -1.40887623     -0.65076478      0.35756392
F      -1.75832670     -0.42165673     -0.98309685
H       1.52588207      1.61854138     -0.53710825
H       2.71820112      0.39558317     -0.90489341
H      -0.09615785      0.22314984      1.78247459
H      -1.01702976      1.59430446     -0.47015323
H      -2.28234239     -0.40798920      0.96236581
H      -1.13050984     -1.69631792      0.46753373
