14
b3lypvtz=-203694.58896887
O       2.05777944      1.48092487      0.37483020
C       1.80043450      0.34200875      0.08387285
C       0.54869894     -0.39624429      0.52425914
C      -0.23182150     -0.98818479     -0.68769505
C      -1.38069355     -0.01558704     -0.81715064
C      -1.40810045      0.77764724      0.25271516
N      -0.40772047      0.48760298      1.19769889
H       2.50058463     -0.26477247     -0.52881352
H       0.89275255     -1.19514555      1.19096987
H      -0.57827732     -2.00165024     -0.46620574
H       0.39256071     -1.05886477     -1.58319247
H      -2.10463645     -0.02958012     -1.61503606
H      -2.12116375      1.55697842      0.47816977
H       0.03980273      1.30486700      1.59557760
