13
b3lypvtz=-213766.41674617
C      -1.39959182      1.52869238     -0.07565949
C      -1.11366849      0.21472845      0.01054959
N      -2.04199950     -0.79194094      0.12464221
C       0.29024050     -0.28724239     -0.00713356
O       0.50701420     -1.48385500     -0.08132313
C       1.46288130      0.66931108      0.06347940
N       2.65942376      0.26330034      0.01633302
H      -0.63015031      2.27735913     -0.13004543
H      -2.42319759      1.87821426     -0.10108807
H      -2.98377750     -0.60136237     -0.16964319
H      -1.69275958     -1.71411890     -0.08407380
H       1.27496282      1.73242346      0.17292680
H       2.65900221     -0.75927249     -0.07780135
