16
b3lypvtz=-227729.88831332
C      -2.62045951     -0.52640191     -0.70641757
C      -1.64451630     -0.68667330      0.45822693
C      -0.91749594      0.59876332      0.82742228
O      -0.12070968      1.12103367     -0.26115676
C       1.10871695      0.62146417     -0.44024580
N       1.60600809     -0.29845432      0.27906904
O       2.92937105     -0.58224513     -0.14378868
H      -3.12136200     -1.46953888     -0.92831240
H      -3.39079111      0.21385572     -0.47804546
H      -2.10559457     -0.20047498     -1.61052150
H      -0.90804566     -1.46048696      0.23778615
H      -2.18173204     -1.01635435      1.35278853
H      -1.62862868      1.39750091      1.03819681
H      -0.27407331      0.45059901      1.69439549
H       1.63847294      1.09176246     -1.26341103
H       3.18438479     -1.29173043      0.45270498
