13
b3lypvtz=-267988.76900138
N       2.82756360      0.29997695      0.43556361
C       1.72646784      0.01479318     -0.31960692
N       0.73407292     -0.63492179      0.12920386
C      -0.41166457     -0.78227500     -0.72889319
C      -1.61346633      0.00348012     -0.23243777
F      -1.32690476      1.34239182     -0.19162875
F      -1.97048311     -0.37274684      1.02853778
H       3.68720124      0.52726386     -0.03082736
H       2.90370242     -0.16991923      1.32328916
H       1.77056444      0.42779412     -1.33503675
H      -0.71649883     -1.83255493     -0.76232533
H      -0.23105969     -0.45609805     -1.76527758
H      -2.48489417     -0.12770120     -0.87996176
