10
b3lypvtz=-246336.56500264
C      -1.21718950      0.56759691      0.34245459
N      -2.47752485      0.52858033      0.39212276
C      -0.40480287     -0.58955644     -0.20847203
O      -0.91275034     -1.60206864     -0.60503312
N       1.02392328     -0.43822189     -0.32144946
N       1.51617108      0.23103238      0.59196002
O       2.85326147      0.36027729      0.47422711
H      -0.68104690      1.44301891      0.69666444
H      -2.81096334     -0.36768675      0.01982109
H       3.11092199     -0.13297211     -0.33328551
