16
b3lypvtz=-181146.97334719
C       0.50299524      1.52608377      0.02698281
C      -0.80216214      1.38534457     -0.19162559
C      -1.61100237      0.11822699     -0.16616343
C      -0.92208381     -1.07609996      0.49671366
N       0.19609803     -1.58422921     -0.29434581
C       1.25099260     -0.89101228     -0.35494746
C       1.51662497      0.44280917      0.31602816
H       0.91212982      2.53000789     -0.00845538
H      -1.36737751      2.28626771     -0.41015566
H      -1.89703484     -0.15920594     -1.18739338
H      -2.55144894      0.31581572      0.35829552
H      -0.59355590     -0.79086454      1.50411901
H      -1.64207550     -1.88668819      0.61070598
H       2.06823458     -1.29600179     -0.95407357
H       1.58985724      0.27820804      1.40015988
H       2.50339453      0.79391407      0.01075627
