15
b3lypvtz=-214542.94752133
N      -2.07131525     -0.82415692     -0.38321266
C      -1.74634428      0.25656564      0.57388103
C      -0.78749887      1.25612975     -0.02628992
C       0.51001985      1.08958392     -0.28859770
C       1.39025890     -0.09217204     -0.02260233
N       0.79828421     -1.31402016      0.01124944
O       2.58732994      0.07787337      0.15872581
H      -2.79244853     -1.42587109     -0.00065774
H      -2.43540369     -0.43479106     -1.24562886
H      -1.29100844     -0.21530678      1.44697527
H      -2.63636277      0.79124579      0.92055697
H      -1.21206989      2.22872977     -0.25332625
H       1.07394195      1.92519993     -0.68391397
H       1.40602145     -2.10793389      0.12441328
H      -0.16140257     -1.44268324     -0.29846638
