13
b3lypvtz=-190432.69006179
C       3.43072537     -0.22868518      0.06570410
C       2.25584783     -0.00966235     -0.05778892
C       0.88367847      0.31336852     -0.25980473
N      -0.05531941     -0.33946728      0.30119742
C      -1.37956666      0.10186874      0.08322162
C      -2.34306943     -1.03699815     -0.11709406
N      -1.65036903      1.34305481      0.13342928
H       4.46435272     -0.43672797      0.19119914
H       0.67370927      1.16023036     -0.91857198
H      -2.33497876     -1.68399914      0.76138382
H      -2.03130750     -1.65111230     -0.96438423
H      -3.35465545     -0.67471333     -0.29098223
H      -2.64845141      1.50092426      0.00712179
