15
b3lypvtz=-193621.13064586
C       2.54115532     -0.44251414      0.13637954
C       1.09218154     -0.11301513     -0.01381945
C       0.06829916     -0.94530501     -0.25317054
C      -1.21572020     -0.15830903     -0.38874353
O      -2.32700092     -0.62977848      0.36823036
C      -0.76743756      1.25805107     -0.09325923
C       0.55697830      1.26897557      0.08577833
H       3.13798036      0.04554348     -0.63912310
H       2.92581810     -0.08866108      1.09712808
H       2.71596243     -1.51590742      0.07284730
H       0.11719793     -2.01696889     -0.37923657
H      -1.55163368     -0.20443261     -1.43240889
H      -2.06760681     -0.62826644      1.29605051
H      -1.44468725      2.09844316     -0.07232153
H       1.17268627      2.13795095      0.27597170
