12
b3lypvtz=-223820.69700542
N      -2.95166949     -0.53458255     -0.31673391
C      -1.69463400     -0.47614220     -0.43913522
C      -0.85145435      0.48080254      0.38587289
O      -1.38365290      1.22642714      1.19006112
C       0.60032102      0.48936791      0.20246772
N       1.15729509     -0.31277991     -0.63483190
N       2.46972329     -0.26065264     -0.81381642
H      -3.24351400      0.14513779      0.39633631
H      -1.18556081     -1.12086529     -1.14939092
H       1.16570283      1.19974079      0.81025385
H       3.05375736      0.21691891     -0.13606926
H       2.86368598     -1.05337248     -1.28921425
