17
b3lypvtz=-191954.51907879
C       2.96578261     -0.78315510     -0.18091938
C       2.06624500     -0.01377394      0.01670550
C       0.97456940      0.92520904      0.24264493
C      -0.39403984      0.45367380     -0.28088055
N      -1.33509041      1.57113500     -0.18814487
C      -0.87850517     -0.82103248      0.42382566
N      -2.16284899     -1.24737513     -0.14808832
H       3.76471130     -1.45971849     -0.35378062
H       1.20619996      1.87680357     -0.24090926
H       0.89493963      1.13449515      1.31582645
H      -0.27754981      0.22229233     -1.34520333
H      -2.26003040      1.21765295     -0.41337322
H      -1.38812664      1.89283626      0.77456560
H      -1.04151427     -0.59186078      1.48125131
H      -0.09885331     -1.59018077      0.37355105
H      -2.01577946     -1.70159735     -1.04247808
H      -2.61436559     -1.92809605      0.44953110
