13
b3lypvtz=-213779.61872974
O       2.56068125      0.21775419     -0.96591914
C       1.53261092      0.12047951     -0.33424074
N       0.74601463      1.16301975      0.14395691
C      -0.53752002      0.69400212      0.57726474
C      -1.39806535     -0.08151632     -0.39956301
C      -0.43282800     -0.80588415      0.51686002
N       0.90091939     -1.05599437      0.05444718
H       0.87751569      2.06859228     -0.27369008
H      -0.98795339      1.20280274      1.41726271
H      -2.44947600     -0.16422304     -0.16018305
H      -1.16310149     -0.02284974     -1.45377713
H      -0.80341392     -1.43787801      1.31094218
H       1.15471629     -1.89830494     -0.43326060
