13
b3lypvtz=-213753.49866044
N      -0.84396306     -2.08776365     -0.88119889
C      -1.04391043     -0.93519480     -0.38315888
C      -0.05474766      0.07233020      0.05475820
C      -0.35511196      1.50501140     -0.09340659
N      -1.30577114      2.03858884     -0.75184521
C       1.07764957     -0.34436904      0.65304687
O       2.03798524      0.50664901      1.07584004
H       0.15386884     -2.25824387     -1.02661500
H      -2.08672564     -0.64424439     -0.23855934
H       0.32355910      2.17965345      0.42630287
H      -1.87961271      1.33797831     -1.22474152
H       1.26079704     -1.39956396      0.82717820
H       2.71588283      0.02906849      1.56249924
