18
b3lypvtz=-181911.03997697
C      -1.50959886      1.73004499     -0.11352018
C      -0.95301468      0.53614446      0.11188970
C      -1.77307529     -0.66880128     -0.13536735
N      -1.48002731     -1.88840223      0.07036370
C       0.46760823      0.38465595      0.59262829
C       1.45920705      0.00907550     -0.52332452
C       2.88708729     -0.16007769     -0.00749220
H      -0.97484597      2.65449576      0.06301199
H      -2.52473677      1.81531699     -0.48123013
H      -2.76686573     -0.46303484     -0.53982780
H      -0.53763566     -1.98601363      0.45215665
H       0.78843986      1.32111919      1.05345034
H       0.51308546     -0.37354525      1.38157637
H       1.13231433     -0.91128305     -1.01278572
H       1.43150823      0.78686506     -1.29055535
H       3.57184346     -0.41446922     -0.81766647
H       2.94791915     -0.95490119      0.73924828
H       3.25080023      0.75841848      0.45846537
