14
b3lypvtz=-227009.3122693
C       2.98027445      0.76623049     -0.06722729
C       2.06464992     -0.45196265      0.01149200
N       0.79680634     -0.18443141     -0.65220873
C      -0.24816957     -0.29045780      0.02131662
O      -1.45816797     -0.03105392     -0.60481225
C      -2.59970503     -0.14041699      0.12405183
O      -2.68069820     -0.44318353      1.27726219
H       3.95433949      0.53762927      0.36760125
H       3.12421620      1.06934121     -1.10412297
H       2.55282764      1.61004081      0.47619713
H       2.53204299     -1.28807534     -0.51446531
H       1.92830133     -0.75819376      1.05763871
H      -0.34304345     -0.56920419      1.06916921
H      -3.44587612      0.09912382     -0.52989039
