15
b3lypvtz=-191177.68039729
C      -1.82921760     -0.37658079      1.04650375
C      -0.76928605     -0.43678076      0.26025031
C      -0.15907648      0.42082928     -0.85541671
C       0.98421750     -0.59090015     -0.84020757
N       0.23244838     -1.48403407      0.15632130
C       1.51346395     -0.82081408      0.51137881
N       0.16329561      1.82732614     -0.73373269
H      -2.50396004      0.46784633      1.00052242
H      -2.05189147     -1.16906853      1.74863418
H      -0.74572604      0.28952021     -1.76670006
H       1.45460902     -1.01005567     -1.71894263
H       2.33154115     -1.52223692      0.60936160
H       1.49535005     -0.03981854      1.26294419
H       0.54367951      2.04145692      0.17974251
H      -0.65944749      2.40331065     -0.86065940
