14
b3lypvtz=-226988.1220964
N      -3.36303370      0.72150491     -0.17462725
C      -2.12112817      0.54605059     -0.40918269
C      -1.25328262     -0.46539109      0.17576864
C       0.04848593     -0.61092301     -0.10180115
O       0.70223365      0.17454918     -0.99280453
C       2.10027943     -0.06167185     -1.12454352
O       2.82318621      0.31975269      0.00454116
H      -3.70016648      0.03509978      0.50537465
H      -1.65268033      1.22315939     -1.12305896
H      -1.68539447     -1.15435288      0.89134827
H       0.65149786     -1.37273122      0.38052922
H       2.38455919      0.49487401     -2.01809175
H       2.28912059     -1.12777481     -1.26191150
H       2.77632293      1.27785431      0.09835943
