18
b3lypvtz=-181890.56456874
C      -2.27731227      0.10693617     -0.24471376
C      -0.78910145      0.20770933     -0.53424021
C       0.12682239      0.88289505      0.54305504
C       1.47737005      0.83874725     -0.18385460
N       1.41140741     -0.55071450     -0.75593912
C       0.11932075     -1.00618573     -0.19071339
C       0.13772216     -0.49079915      1.27531983
H      -2.75148564      1.08571835     -0.34595086
H      -2.49960667     -0.26186966      0.75646476
H      -2.76167542     -0.56429114     -0.95756549
H      -0.63712912      0.57735896     -1.55060870
H      -0.14791238      1.81092307      1.04085142
H       2.32539066      0.97047097      0.49167165
H       1.55222506      1.58230370     -0.97957576
H       2.16679484     -1.11335391     -0.38200638
H      -0.13681809     -2.02760504     -0.46425750
H       1.01126045     -0.73878710      1.88134329
H      -0.77038874     -0.69046162      1.83704078
