17
b3lypvtz=-194391.25931836
C      -3.15836161     -0.21209133     -0.44723496
C      -2.08730580      0.26329594      0.17358410
C      -0.86340125     -0.54068427      0.48750232
C       0.44927296      0.15419191      0.12489716
O       0.52882241      1.35660482      0.02913230
C       1.64769547     -0.75652983     -0.07579945
C       2.97258981     -0.01970166     -0.22076430
H      -3.21794340     -1.24243999     -0.77923724
H      -4.01819537      0.41334962     -0.64722378
H      -2.05493573      1.30191538      0.48067636
H      -0.79986259     -0.71976810      1.57054605
H      -0.90680807     -1.52914087      0.02502373
H       1.67450061     -1.47117158      0.75371713
H       1.43778353     -1.36376871     -0.96416216
H       2.94159217      0.67500828     -1.05878139
H       3.78843506     -0.72410961     -0.38512260
H       3.19667779      0.56173699      0.67352373
