18
b3lypvtz=-205214.97641463
C       2.41107880     -0.92975724     -0.35604913
N       1.73662001      0.21600437      0.23940692
C       0.32824240      0.37731685     -0.13797506
C      -0.09427164      1.82424443      0.10311236
C      -0.52955511     -0.59828162      0.67428513
C      -1.95486393     -0.76677033      0.22394835
O      -2.45523033     -0.24687855     -0.74158204
H       2.30438313     -0.99075692     -1.45046787
H       2.02916396     -1.86267112      0.06305806
H       3.47391633     -0.88609453     -0.11766265
H       2.23742502      1.06051574     -0.00476857
H       0.17523011      0.14855005     -1.20358367
H       0.50240770      2.50580088     -0.50743298
H       0.05120417      2.09320470      1.15165882
H      -1.13979787      1.97247970     -0.15923494
H      -0.53807922     -0.31096738      1.73252019
H      -0.09291895     -1.60421138      0.66685289
H      -2.55616957     -1.44858564      0.86350519
