15
b3lypvtz=-214524.12182923
C      -0.09017957      2.04873544      0.06405621
C       0.35736063      0.63989749     -0.14043039
C       1.51052902      0.10376983      0.26591647
N       1.89045311     -1.22254104      0.10225329
O      -0.50127978     -0.15386529     -0.92713083
C      -1.57183506     -0.75005219     -0.31213257
N      -1.86143430     -0.81821668      0.90855229
H      -1.04131816      2.10078268      0.60118361
H      -0.23407213      2.55402019     -0.89491154
H       0.65088679      2.60633386      0.63615545
H       2.20665008      0.72231972      0.81639566
H       1.38516685     -1.71316007     -0.62069132
H       2.88409102     -1.37410450      0.03929007
H      -2.20097826     -1.20689597     -1.07063965
H      -1.15926524     -0.36104846      1.49197824
