20
b3lypvtz=-182661.9359359
C       1.77589760     -1.31694333      0.26468275
C       0.52696287     -1.17188227     -0.61025940
C      -0.45895934     -0.08365022     -0.19656169
C      -0.08545456      1.35482559     -0.51075624
N       1.09759756      1.81206001      0.22821979
C      -1.92748157     -0.40911877     -0.32058851
C      -1.29018676     -0.32254644      1.04205031
H       1.50370266     -1.53133267      1.30071341
H       2.37017976     -0.40630664      0.25655080
H       2.39514043     -2.14348009     -0.09039693
H       0.82875075     -0.98771059     -1.64661134
H      -0.00580158     -2.12708514     -0.61956706
H       0.14477576      1.43258129     -1.57777772
H      -0.97009826      1.98410216     -0.33510103
H       1.32238759      2.76759532     -0.02213362
H       0.91112052      1.80517585      1.22479245
H      -2.19825387     -1.38749191     -0.69344677
H      -2.60742342      0.38022025     -0.61272077
H      -1.54666501      0.52365641      1.66662994
H      -1.13464212     -1.24231181      1.58984263
