17
b3lypvtz=-217711.6103873
C      -3.24053673     -0.29613531     -0.00013450
C      -1.89755808      0.43188693      0.00004711
C      -0.71560281     -0.53249728      0.00021884
C       0.63011638      0.15566703      0.00029505
O       0.81497712      1.34659655      0.00014175
O       1.63277392     -0.75006000      0.00014950
C       2.96324676     -0.20855623     -0.00014254
H      -3.34851533     -0.93289064     -0.88128162
H      -3.34876707     -0.93287385      0.88099397
H      -4.07056543      0.41151166     -0.00026038
H      -1.82600617      1.08649046      0.87062875
H      -1.82575803      1.08646460     -0.87053324
H      -0.74809499     -1.19534914      0.86990619
H      -0.74786222     -1.19535986     -0.86946963
H       3.62922876     -1.06650959     -0.00027290
H       3.12816622      0.40303186      0.88581703
H       3.12776971      0.40299779     -0.88620040
