18
b3lypvtz=-181877.89187686
C      -2.29022532      0.05729530      0.26190960
C      -0.92077321      0.13845542     -0.39165855
C      -0.04415400      1.37040019     -0.03124635
N       1.03763816      0.51133636      0.53842447
C       2.03722726      0.07357608     -0.48942368
C       1.29529774     -1.26906661     -0.71139387
C       0.20636715     -0.72383964      0.23079843
H      -2.21876281      0.19958915      1.34263976
H      -2.96020688      0.82577995     -0.13050522
H      -2.75842455     -0.91322100      0.08262174
H      -1.01761166     -0.02088543     -1.46805247
H       0.28084408      1.99988043     -0.86325280
H      -0.48462293      2.01280495      0.73430668
H       2.08091363      0.73231760     -1.36075463
H       3.04210868     -0.01372862     -0.07576164
H       1.82592129     -2.13322885     -0.31473499
H       0.97693180     -1.49332495     -1.72974249
H      -0.08846844     -1.35424032      1.07212603
