14
b3lypvtz=-201305.84897465
N      -2.90838822     -0.76342496     -0.02171292
C      -2.02638841     -0.01466013     -0.04463650
C      -0.96752575      0.91760840     -0.08233481
C       0.33514152      0.56575103      0.06958759
N       1.36066123      1.45650505      0.07707678
C       0.76397850     -0.86461392      0.33199673
N       2.07639983     -1.14172266     -0.26356322
H      -1.24067167      1.95593612     -0.22245778
H       2.27418916      1.05644905     -0.07992806
H       1.20309305      2.39717337     -0.23950803
H       0.85790068     -0.98311781      1.41438990
H      -0.02906623     -1.53923910      0.00501693
H       2.52175170     -1.92184179      0.20039901
H       1.98303160     -1.38961565     -1.24135463
