10
b3lypvtz=-225488.32192499
O       1.28941403     -0.46238846      0.57763714
C       2.20701810     -0.09964299     -0.11553106
C       2.90980545     -0.95663287     -1.07893932
N       3.90098793     -0.59969962     -1.84149101
C       4.21743318     -1.73030046     -2.55874297
C       3.38225759     -2.73318588     -2.18401867
O       2.53923690     -2.25356743     -1.23716781
H       2.61230469      0.92672437     -0.09153647
H       5.01141521     -1.74759174     -3.28480504
H       3.26262692     -3.76281491     -2.46770477
