15
b3lypvtz=-193605.66363547
C      -2.97486993      0.56713928     -0.18361967
C      -1.49807771      0.63603903     -0.40285155
C      -0.61708159     -0.28230915      0.01259963
C       0.78704053     -0.19023151     -0.21099008
C       1.98139480     -0.16466270     -0.37073645
C       3.41998671     -0.10816021     -0.57741375
O      -1.04759897     -1.40026253      0.70183176
H      -3.25739382     -0.33126974      0.36082289
H      -3.32865982      1.43472151      0.38123711
H      -3.51354872      0.57362957     -1.13582745
H      -1.09703979      1.48681809     -0.93611598
H       3.90898077     -0.99290798     -0.16493824
H       3.85359783      0.76922227     -0.09241079
H       3.66332986     -0.05816150     -1.64099648
H      -0.28006017     -1.93960445      0.91356959
