15
b3lypvtz=-214527.70647082
C       1.22069078     -1.52435043      0.44400146
C       0.95271584     -0.11903960     -0.01652202
N       1.69240410      0.58137432     -0.77188814
C      -0.35776005      0.52030396      0.46276072
N      -0.42803942      1.96219259      0.29568714
C      -1.51512642     -0.12648679     -0.31798818
O      -1.92253261     -1.24409481     -0.14359550
H       2.09041167     -1.94710558     -0.05829779
H       1.40093951     -1.53200689      1.52242228
H       0.35176742     -2.15993228      0.26781737
H       2.53037193      0.07462678     -1.05443716
H      -0.51373831      0.24367558      1.50840334
H      -0.18072678      2.43118473      1.15670325
H       0.26259596      2.23686434     -0.39766818
H      -1.95952860      0.55717510     -1.06766459
