11
b3lypvtz=-212974.67755728
C      -2.02670373      1.48201133      0.90256183
C      -1.38417585      0.55856138      0.48214985
C      -0.63075422     -0.54741900     -0.05459649
N      -1.01688548     -1.28594264     -1.01670464
N       0.55311275     -0.83022125      0.64738224
C       1.68805588     -0.49284760      0.23120382
O       1.91252216      0.21337106     -0.89948672
H      -2.59753518      2.29644483      1.27402153
H      -1.93028475     -0.98144743     -1.34726363
H       2.57447855     -0.76191180      0.80255833
H       2.85816988      0.34940112     -1.02182610
