14
b3lypvtz=-227019.68119819
C       2.32508265     -0.47149697     -0.00000090
C       1.47233789      0.55035078      0.00000102
N       0.06313011      0.54578161     -0.00000894
C      -0.63674645      1.83479513     -0.00000651
C      -0.66501667     -0.61399844     -0.00001947
O      -0.23021043     -1.74315730     -0.00000208
O      -2.00456195     -0.35032648      0.00001769
H       3.38112733     -0.24275696      0.00001042
H       2.01554792     -1.50156858     -0.00001379
H       1.85811574      1.56066593      0.00001282
H      -1.26443435      1.94011557     -0.88369537
H      -1.26441018      1.94012577      0.88369869
H       0.10447878      2.62866167     -0.00002240
H      -2.43127239     -1.21699271      0.00003482
