11
b3lypvtz=-236316.08289939
C       2.56952454      0.32546200     -0.31669644
N       1.40059449      0.62649132     -0.70559556
C       0.33720266     -0.11768175     -0.08041785
O       0.50164852     -0.97649864      0.75786439
N      -0.90419914      0.30301788     -0.58843363
C      -1.93277208     -0.28058053     -0.11519417
O      -3.15514538      0.03489221     -0.52005400
H       2.76624050     -0.44053834      0.43685276
H       3.41305293      0.85382897     -0.75327972
H      -1.92757203     -1.06557887      0.63778335
H      -3.06857500      0.73718578     -1.18592309
