18
b3lypvtz=-181903.44022228
C       1.94700025      0.23903790      0.86011371
C       1.00113196     -0.14982678      0.00321540
C       1.11135535     -1.44586720     -0.75824753
C      -0.21442677      0.67467151     -0.22803284
C      -0.15117668      2.00103664     -0.36512300
C      -1.54291899     -0.04024204     -0.34202036
N      -1.77643392     -0.92143923      0.80845887
H       2.84451161     -0.34753085      1.01005805
H       1.84407629      1.14101312      1.44802477
H       1.00132817     -1.28605079     -1.83416175
H       0.32635008     -2.13620685     -0.44409046
H       2.07592896     -1.91947949     -0.58075329
H      -1.04576036      2.59441113     -0.50782257
H       0.79341138      2.52755433     -0.35730056
H      -2.32757207      0.71016927     -0.49724415
H      -1.53415243     -0.67211466     -1.23546778
H      -1.83305865     -0.37769776      1.66170798
H      -2.65694318     -1.41151924      0.70686750
