16
b3lypvtz=-181115.84581504
C       2.77334049     -0.55857120     -0.01130312
C       1.60528357     -0.31556206      0.11018325
C       0.17696651     -0.03705209      0.27170704
C      -0.67447759     -1.23996601     -0.18557417
C      -2.16700658     -1.05528565      0.07264697
N      -0.17510448      1.14901868     -0.51972631
C      -0.52480538      2.18603833      0.10469913
H       3.80750781     -0.76853537     -0.12351861
H      -0.01624967      0.14060738      1.34164223
H      -0.48658872     -1.39680725     -1.24872800
H      -0.30684498     -2.12333900      0.33969294
H      -2.37088885     -0.89935161      1.13476635
H      -2.72199459     -1.93930346     -0.24352803
H      -2.56301271     -0.20022669     -0.47520828
H      -0.79630150      3.07743613     -0.45646793
H      -0.57151434      2.25019085      1.19884755
