14
b3lypvtz=-203682.76748105
N      -2.78986702     -0.31555799     -0.00001965
C      -1.78924539      0.46857470      0.00001646
C      -0.35669296      0.13592444      0.00000776
C       0.23156128     -1.05994723      0.00001291
C       1.71853890     -0.90968285      0.00000702
O       1.95191574      0.50002724     -0.00001939
C       0.71004784      1.20267056      0.00000046
H      -2.49399591     -1.29440679     -0.00006101
H      -2.01308935      1.53785449      0.00005701
H      -0.26090074     -2.02240107      0.00002631
H       2.18389839     -1.36509364     -0.88370317
H       2.18389886     -1.36506454      0.88373268
H       0.64827553      1.84861858     -0.88469393
H       0.64829284      1.84860809      0.88470453
