19
b3lypvtz=-171829.92981598
C       3.54135135      0.18701520     -0.18089534
C       2.14543528     -0.18297093      0.01322760
C       0.99583564     -0.49394058      0.17772783
C      -0.40362308     -0.86730240      0.36191562
C      -1.41367308      0.06977277     -0.33962990
C      -1.34005446      1.49498196      0.21030074
C      -2.82891208     -0.49972710     -0.21795028
H       3.93326179      0.72206234      0.68670716
H       4.16533710     -0.69555495     -0.33667020
H       3.66056563      0.83466824     -1.05205060
H      -0.63457489     -0.89729075      1.43285792
H      -0.55049676     -1.88674633     -0.00794107
H      -1.14413166      0.09824228     -1.39975892
H      -1.61983672      1.51738478      1.26731276
H      -2.02291403      2.15549564     -0.32713742
H      -0.33330717      1.90297715      0.12151259
H      -2.89682258     -1.50163575     -0.64654611
H      -3.13541637     -0.56345285      0.82968133
H      -3.55158991      0.13415326     -0.73446570
