15
b3lypvtz=-191198.8563571
C      -0.18047455      1.32587542      0.25513667
C       1.10373148      1.12336757      0.54466049
C       1.57361336     -0.19633766      0.02292872
C       0.39517725     -0.80899032     -0.64654954
C      -0.76396633      0.20292097     -0.58226316
N      -2.05813200     -0.25040848     -0.06863215
N       0.91043207     -1.38928224      0.59758179
H      -0.78741401      2.15742088      0.58514824
H       1.73512276      1.79111188      1.11481542
H       2.59697283     -0.34169882     -0.29567033
H       0.48040852     -1.44929226     -1.51510038
H      -0.94868262      0.57079596     -1.59760530
H      -2.44423092     -0.97229604     -0.66558066
H      -1.95625388     -0.65340153      0.85654272
H       0.34369601     -1.10978529      1.39458746
