16
b3lypvtz=-202021.73143606
C       3.54797548     -0.45326104     -0.03642887
C       2.24040264      0.17598009      0.32894563
C       1.12941388      0.11964202     -0.39735662
C      -0.16179725      0.77988451     -0.01656646
N      -1.24090868     -0.18948738      0.08353864
N      -2.47709061      0.19886212     -0.22371777
N      -3.37134074     -0.56644620      0.20177308
H       3.87468824     -1.15603314      0.73485092
H       4.33522657      0.30055136     -0.12422560
H       3.48493559     -0.99034794     -0.98294552
H       2.21877603      0.72625530      1.26701351
H       1.12031247     -0.43229068     -1.33316151
H      -0.47586574      1.49295467     -0.78133202
H      -0.03509249      1.33894617      0.91812163
H      -1.17099572     -0.95187100      0.75301860
H      -4.25182368     -0.17879886     -0.14084664
