15
b3lypvtz=-191174.50567626
C      -3.66432750     -0.39534800     -0.03813484
C      -2.57525960      0.10211430      0.02779288
C      -1.25122462      0.70450156      0.13760246
N      -0.20660165     -0.26965382     -0.17492878
N       1.04781418      0.28459080     -0.16346154
C       2.04637299     -0.46352769      0.08063340
C       3.44321973      0.06134862      0.02076922
H      -4.62974160     -0.83063221     -0.10827320
H      -1.15130237      1.52722027     -0.57220348
H      -1.13440415      1.13550317      1.14140761
H      -0.29355199     -1.12464213      0.37061851
H       1.90945254     -1.52350660      0.32647607
H       4.02797221     -0.46755625     -0.73715543
H       3.95819464     -0.08175847      0.97447638
H       3.43539820      1.12239545     -0.22102625
