17
b3lypvtz=-191986.77911494
N      -2.30990945     -0.09275799     -0.33900854
C      -1.12091877     -0.00621252      0.09861778
C      -0.35494803      1.27052639      0.37049548
C       1.04026438      1.23685999     -0.27917481
C       1.76649968     -0.07079563      0.05898820
N       0.99584202     -1.27177738     -0.25766621
C      -0.33122948     -1.27120881      0.36910908
H      -2.71220726      0.83608200     -0.48547761
H      -0.93065737      2.13435798      0.03168025
H      -0.23403339      1.36780498      1.45610662
H       0.93509360      1.31733073     -1.36551269
H       1.62917318      2.09798648      0.04769108
H       2.72114785     -0.12368204     -0.46726172
H       1.99503205     -0.09556467      1.13022097
H       0.89001425     -1.35646430     -1.26261791
H      -0.18993500     -1.37702001      1.45144293
H      -0.90340726     -2.13058619      0.02517911
