12
b3lypvtz=-202877.27800964
C      -0.86570373      2.49177432      0.26226715
C      -0.59092629      1.34284077      0.05368229
C      -0.20536995     -0.02627565     -0.18765917
C      -1.14003235     -1.13196475      0.07045611
O      -0.89844906     -0.69774624     -1.26822518
C       1.27666389     -0.28481543     -0.16259232
N       1.74765103     -1.32834668      0.37050634
H      -1.12149818      3.50595621      0.44460416
H      -2.12312844     -0.89570737      0.46194007
H      -0.72162698     -2.09600187      0.33196501
H       1.88094908      0.48778852     -0.64727477
H       2.76147101     -1.36750185      0.27033032
