14
b3lypvtz=-227016.74365692
C      -0.35962483      0.67232527      0.15190260
C       1.05603685      0.22757018     -0.06085817
C       1.82659596     -0.25271668      0.90878391
O       3.11699858     -0.67659349      0.79071796
C      -1.31574583      0.05030700     -0.86749859
O      -1.02279064     -0.07228403     -2.04128456
N      -2.53449826     -0.31361598     -0.37929865
H      -0.44672452      1.75652191      0.00906364
H      -0.68052314      0.46417857      1.17461376
H       1.43112364      0.29952246     -1.07616895
H       1.48567715     -0.35385229      1.93208825
H       3.39860409     -0.58653660     -0.12720646
H      -3.19991943     -0.72304111     -1.01315695
H      -2.75520963     -0.27414936      0.59830219
