9
b3lypvtz=-212219.19927317
N       2.20243669     -1.22054362     -0.03872260
C       1.22558397     -0.61491083     -0.02011341
C      -0.00005986      0.16049001     -0.01554848
C      -1.22527099     -0.61559695     -0.02009261
N      -2.20178109     -1.22178189     -0.03869181
C      -0.00044252      1.52657669     -0.59649028
O      -0.00037556      1.32666597      0.80922880
H       0.92533282      1.89869243     -1.01979702
H      -0.92642946      1.89818220     -1.01977958
