17
b3lypvtz=-194352.69729869
C       2.01313562     -0.20740173      0.48716447
C       0.94622486      0.02646665     -0.55509702
C       0.18177917      1.33047629     -0.59689515
C      -0.50235445      0.06703874     -0.18138266
C      -1.16056066     -0.27691523      1.14933341
O      -2.24241468     -0.95209234      0.46045108
C      -1.67917569     -0.64141997     -0.83829763
H       2.96867817      0.21816540      0.17370317
H       1.74450677      0.25451727      1.43934296
H       2.16659031     -1.27353218      0.66889547
H       1.15690694     -0.41718475     -1.52293331
H      -0.06959555      1.75433305     -1.56094161
H       0.39713332      2.06411962      0.17095734
H      -1.52319433      0.57109520      1.73796992
H      -0.60793561     -0.96099987      1.80038859
H      -2.34923165     -0.00911330     -1.42892467
H      -1.44049251     -1.54755288     -1.40373434
