16
b3lypvtz=-204444.99449778
C       2.07583843      0.29773509      0.07661985
C       0.80880835     -0.08239052      0.01928045
C       0.22076284     -1.14397432     -0.88684712
N      -1.18554403     -1.21912164     -0.46260830
C      -1.56114019      0.12103798     -0.01334407
C      -0.34085480      0.52776504      0.81143015
O      -0.30042418      1.93593006      0.97480290
H       2.84261499     -0.16530257     -0.53187470
H       2.39733081      1.10504401      0.72313490
H       0.71160090     -2.11296284     -0.77625638
H       0.33996431     -0.83048863     -1.93506127
H      -1.79178201     -1.57080763     -1.19030179
H      -1.68401392      0.85560836     -0.82391753
H      -2.47896065      0.09704302      0.57342630
H      -0.39914000      0.03252665      1.78840901
H       0.34483914      2.15245795      1.65310760
