13
b3lypvtz=-213693.65204652
C       1.06208423      0.49475155      0.46326277
N       1.54431951     -0.36929155     -0.75471959
C       0.19318134     -0.57826759     -1.14320284
N      -0.58792314     -1.41978023     -0.58804908
C      -1.41555290     -0.44516429      0.22980409
C      -0.46148962      0.79412542      0.11497655
O      -0.32520641      0.73503364     -1.31521097
H       1.21148302     -0.05159811      1.39348259
H       1.62654586      1.42290915      0.46430740
H       1.89858162     -1.24551789     -0.38196359
H      -2.40439244     -0.20037606     -0.16402691
H      -1.51436497     -0.89465804      1.21758339
H      -0.82726608      1.75773401      0.46375620
