16
b3lypvtz=-227778.83127242
C      -2.30256283      0.89060462     -0.57118990
C      -1.47887388     -0.19948600      0.08156131
O      -0.09999541      0.08355027     -0.12105607
C       0.76421005     -0.87971102      0.44748261
C       2.22972513     -0.53183946      0.21660190
O       3.10675610     -1.26073941      0.64161477
N       2.44995182      0.60996069     -0.47398862
H      -2.06785720      1.86281831     -0.13693450
H      -3.36627183      0.69721366     -0.42594188
H      -2.10458572      0.93403838     -1.64249405
H      -1.68837341     -0.25355242      1.15776151
H      -1.72005079     -1.17973873     -0.34956281
H       0.59198751     -1.87327184      0.01705332
H       0.61359653     -0.95998403      1.53050428
H       1.67541192      1.16561205     -0.79124489
H       3.39693202      0.89452492     -0.65321979
