17
b3lypvtz=-191974.06761788
C      -3.09653498     -0.55006831      0.10793249
C      -1.78911313      0.17342954      0.01499783
C      -0.62415799     -0.39835903     -0.26865424
C       0.70489811      0.30797047     -0.37323552
N       0.60814115      1.72180237     -0.00281877
C       1.74850105     -0.42621411      0.45578501
N       2.78627246     -1.02871169      0.05327667
H      -3.55139058     -0.41601828      1.09330627
H      -3.81213216     -0.15761735     -0.61995349
H      -2.98151329     -1.61954088     -0.07064469
H      -1.81694756      1.24709143      0.16895671
H      -0.58293574     -1.46911335     -0.44797665
H       1.03528135      0.26749239     -1.41890958
H       1.50896421      2.17371032     -0.10498420
H       0.33432587      1.81625427      0.96963958
H       1.56979507     -0.39285620      1.53560607
H       2.85026415     -0.99815758     -0.96816649
