16
b3lypvtz=-204458.60628268
C       1.97692718     -1.08265765      0.53631629
C       1.22312035     -0.19736517     -0.09647579
C       1.65910603      1.13168349     -0.62005278
O      -0.08939983     -0.57030727     -0.42687017
C      -1.14406138      0.07299880      0.14549881
C      -2.42851269     -0.44997037     -0.43412500
N      -0.97597159      0.95609117      1.03415266
H       3.01595809     -0.87045479      0.73967042
H       1.57238096     -2.03034382      0.86042540
H       1.50093202      1.18225615     -1.70024017
H       1.08464247      1.93256716     -0.15606097
H       2.71645860      1.28995294     -0.41570087
H      -3.28756168      0.03413208      0.02443867
H      -2.49667346     -1.52732486     -0.27823410
H      -2.45034954     -0.27718774     -1.51104931
H      -1.86832152      1.32020090      1.35226190
