16
b3lypvtz=-204420.91394722
O      -1.33850423      0.61531312     -1.43054894
C      -1.47161249     -0.39950628     -0.48427013
C      -1.59861786     -0.11144843      0.98573208
C      -0.35509127     -0.80517958      0.44733744
C       0.96877429     -0.11084118      0.47903179
C       1.84193980      0.01180951     -0.71452802
N       1.08600759      1.18032467     -0.22850188
H      -0.57596109      1.16140927     -1.16348000
H      -2.08141228     -1.20276345     -0.87763502
H      -1.48226724      0.92509066      1.27587227
H      -2.29805224     -0.67703084      1.58691421
H      -0.27331367     -1.86681273      0.65400607
H       1.48483904     -0.17390781      1.43286437
H       1.49559837     -0.37687325     -1.66310236
H       2.91556172      0.00415282     -0.57411333
H       1.68231157      1.82606351      0.27442146
