17
b3lypvtz=-191972.45873379
C       2.54052471     -0.35591722      0.58158219
C       1.45418310     -0.00476535     -0.41695412
C       0.51935748      1.19025898     -0.07405018
N      -0.63218777      0.30963522     -0.31868401
C      -1.89989973      0.41413963      0.17665183
N      -2.77325755     -0.50197681      0.33258518
C       0.18368565     -0.90109079     -0.44386756
H       2.13005301     -0.46931477      1.58720755
H       3.03240662     -1.29334434      0.31404988
H       3.30738066      0.42061340      0.61860917
H       1.87757867      0.10391051     -1.41505645
H       0.57518861      2.05736720     -0.73460051
H       0.60318622      1.52553788      0.96497508
H      -2.16622303      1.44028379      0.43726647
H      -2.41082649     -1.41534654      0.05454348
H       0.09446768     -1.57088902      0.41966905
H       0.00837215     -1.47599878     -1.35522004
