17
b3lypvtz=-191935.47622449
C      -1.47381633      0.35056030      1.24017218
C      -0.56331582      0.16077826      0.06401452
C      -0.46281559      0.99795084     -1.23548295
C       0.48274427     -0.20957253     -1.39090505
C       1.00024644      0.07001318      0.04473474
N       1.59065273     -1.04983600      0.75603785
N      -0.64090901     -1.06888067     -0.83936920
H      -1.30361459      1.32123889      1.71082640
H      -1.31071664     -0.42627230      1.99064729
H      -2.51665349      0.29950099      0.92377399
H      -0.01062870      1.98644745     -1.16089738
H      -1.34661966      0.97609594     -1.86753342
H       1.05740272     -0.50591447     -2.26725313
H       1.52559821      1.02475913      0.17955253
H       1.64830297     -0.85643166      1.74892081
H       2.53645659     -1.22295487      0.43641146
H      -0.21231414     -1.84748250     -0.33365063
