13
b3lypvtz=-242074.76477599
C      -0.79723344      1.91697628      0.00000271
C      -0.00922878      0.63301841      0.00000346
C       1.31689072      0.73279570      0.00000407
F       2.15770533     -0.33582686      0.00000508
C      -0.77963285     -0.64855630      0.00000352
N      -2.04443664     -0.73378157      0.00000420
O      -0.08736868     -1.81125768      0.00000267
H      -0.13809072      2.78379242      0.00000207
H      -1.43707651      1.98228997      0.88208070
H      -1.43707669      1.98228878     -0.88207522
H       1.87275714      1.65875985      0.00000457
H      -2.48208209      0.17990499      0.00000480
H       0.86129922     -1.64486900      0.00000237
