15
b3lypvtz=-240257.54013575
C       2.46536299     -0.61830857      0.39882959
C       1.25501439      0.11111486     -0.12200363
O       1.28207643      1.12733587     -0.77078819
O       0.11805381     -0.52690880      0.22949786
C      -1.14241764      0.01045382     -0.27179250
C      -1.66859541      1.03874347      0.70776111
O      -1.99854546     -1.06593364     -0.46998977
H       2.52718168     -1.60354245     -0.06490168
H       2.38034771     -0.77027457      1.47482571
H       3.35958877     -0.04661732      0.17008639
H      -0.95157104      0.44661639     -1.24893031
H      -0.97187491      1.87136547      0.79331110
H      -2.62946244      1.41846273      0.36130019
H      -1.79975913      0.58840615      1.69457888
H      -2.26644975     -1.41525741      0.38776023
