15
b3lypvtz=-214496.85890202
C       2.25388880     -1.04474317     -0.42154447
N       1.18104361     -0.62691029      0.10048892
C       0.32072628      0.19140881     -0.65996956
C      -1.16774332      0.14999299     -0.32093088
C      -0.37405579      1.38026768      0.01928794
O      -0.16234593      1.66010717      1.35412970
N      -1.55587384     -0.62916891      0.83138087
H       2.55965408     -0.80489195     -1.44701253
H       2.92186098     -1.67088221      0.16387380
H       0.56310249      0.32809222     -1.71349154
H      -1.84979873      0.17464256     -1.16351352
H      -0.47946894      2.27142034     -0.58563878
H      -0.54269936      0.90286669      1.83484234
H      -1.11035615     -1.53713092      0.84732136
H      -2.55793419     -0.74507103      0.87930526
