14
b3lypvtz=-222171.93732987
N       1.95459755      0.16731553      1.07470774
N       2.11382847      0.11228346     -0.16282306
N       1.03707813     -0.29817041     -0.84837093
C      -0.15820944     -0.83833049     -0.24211077
C      -1.27516572      0.18708049     -0.04151960
N      -1.23949995      1.41286002     -0.37036736
N      -2.37745898     -0.34045649      0.59524098
H       2.84489422      0.49694495      1.44969898
H       1.23656979     -0.45658666     -1.81890251
H      -0.52918444     -1.64582813     -0.87869859
H       0.10776358     -1.26049442      0.72854775
H      -0.32984422      1.64525547     -0.76045303
H      -3.19658074      0.24590187      0.58545359
H      -2.55351724     -1.32738920      0.51534579
