18
b3lypvtz=-181895.31909507
C       2.54517448      0.40359939      0.56188077
C       1.23371182     -0.32948418      0.47319036
C       0.22711132     -0.05763406     -0.59548734
N       1.06429557     -1.25978735     -0.65185368
C      -1.23396362     -0.08517321     -0.30445979
C      -1.94180256     -1.20795778     -0.20129367
C      -1.85958474      1.27463741     -0.13910294
H       2.44895018      1.31065382      1.16273556
H       2.89572352      0.67994659     -0.43256405
H       3.30901634     -0.22657414      1.02292162
H       0.81103014     -0.64441701      1.42273903
H       0.50890336      0.68535305     -1.33750857
H       0.53511334     -2.07475365     -0.36164707
H      -1.50624471     -2.18733883     -0.35184488
H      -2.99820588     -1.18608728      0.03169300
H      -2.92477938      1.20249836      0.07572379
H      -1.73425252      1.87209374     -1.04649621
H      -1.38019664      1.83042514      0.67137407
