11
b3lypvtz=-189675.21895192
N      -3.22823589      0.46980906      0.06542326
C      -2.15279083      0.37214695      0.73870252
C      -0.83944208      0.14157456      0.21517038
C       0.26893388     -0.05130344     -0.20996815
C       1.60520941     -0.28521369     -0.74776632
C       2.64345396     -0.35596767      0.28561165
N       3.46972641     -0.41438092      1.08193311
H      -3.04271360      0.36071981     -0.93326970
H      -2.21728295      0.47096220      1.82208569
H       1.62189440     -1.21893434     -1.31786903
H       1.87114730      0.51058748     -1.45005341
