12
b3lypvtz=-200529.3122758
C       2.63901600     -0.36152162      0.00004136
C       1.65399812      0.53387638     -0.00000585
C       0.23022270      0.22731171     -0.00002453
N      -0.26929749     -1.01576234      0.00003737
N      -1.57589487     -0.82382766      0.00003631
H      -2.22202634     -1.59517187     -0.00022090
N      -1.99457364      0.43217214     -0.00012993
C      -0.85887285      1.12293127     -0.00006597
H       2.43615602     -1.42405749      0.00007032
H       3.67416522     -0.05014369      0.00006467
H       1.89305656      1.59165720     -0.00002667
H      -0.86365145      2.19934198     -0.00027818
