15
b3lypvtz=-193549.4748684
C       1.37541659     -0.04136631      0.96005858
C       1.71184975     -0.38765964     -0.48969638
C       0.32326338     -0.07256570     -0.08976642
C      -1.00822645     -0.81124962     -0.26261906
C      -1.72892127      0.37650904      0.41741107
C      -0.71365802      0.92841398     -0.61073350
O      -1.17824599     -0.11428679     -1.56874349
H       1.70441963      0.91801372      1.33819101
H       1.40598723     -0.84117422      1.68876066
H       1.96379150     -1.41522201     -0.71628704
H       2.26149676      0.34372494     -1.06738542
H      -1.22811209     -1.87563568     -0.22510862
H      -2.77336646      0.49796495      0.14038945
H      -1.53342312      0.55494341      1.47434330
H      -0.58227143      1.93958990     -0.98881412
