13
b3lypvtz=-213736.68421150747
C      -1.74678605      0.63745294     -0.24436398
C      -0.56176458     -0.07331750      0.32797007
C       0.69550224      0.12420647     -0.08898994
C       1.85819510     -0.54557982      0.43441910
N       3.04659603     -0.28632431     -0.03062506
N       4.07866490     -0.05710865     -0.43817829
O      -2.61308436     -0.21393504     -1.00654983
H      -2.31794518      1.12962758      0.55322457
H      -1.42029117      1.41232361     -0.93834015
H      -0.75708183     -0.79234801      1.11995656
H       0.87908738      0.84267897     -0.88219366
H       1.82363339     -1.28537432      1.21985742
H      -2.96472587     -0.89230192     -0.42184673
