17
b3lypvtz=-191963.03338461
C      -3.08863289      0.75497101      0.12986862
C      -2.18764798     -0.18799942     -0.15388146
N      -0.82546383     -0.08053212      0.03522680
N      -0.02860585     -1.13876016     -0.22423996
C       1.22487184     -1.07227658      0.02747203
C       1.98927055      0.09067687      0.60122447
C       2.41849120      1.11980372     -0.46083953
H      -2.81450662      1.71117157      0.55725352
H      -4.13371530      0.57797846     -0.06838575
H      -2.46707292     -1.14314424     -0.57784329
H      -0.45076619      0.75556986      0.46284348
H       1.77799282     -1.96816284     -0.23232715
H       1.40196386      0.58824285      1.38052737
H       2.87763296     -0.29710530      1.10293994
H       3.05950343      0.65621384     -1.21146915
H       2.97344789      1.94044970     -0.00371883
H       1.55726203      1.54073276     -0.98113311
