15
b3lypvtz=-191176.48854972
C      -3.37027678     -0.51785024      0.75030110
C      -2.08825454     -0.22221245      0.12648759
C      -1.03258225      0.01383714     -0.39538316
C       0.24833672      0.32137283     -1.02240865
N       1.35605228      0.07079819     -0.10003074
N       2.58115359      0.26764382     -0.64632883
C       3.56686065      0.52809181      0.11507692
H      -3.78722551     -1.45293535      0.37017570
H      -4.09477826      0.27634520      0.55790052
H      -3.26340379     -0.61634719      1.83273003
H       0.24138020      1.36083439     -1.37777850
H       0.40774637     -0.30998397     -1.89864485
H       1.21591399      0.47212715      0.82488322
H       4.54534762      0.62470595     -0.33508957
H       3.47372971      0.64362293      1.19810920
