14
b3lypvtz=-224591.450715
N       3.17456630     -0.16190555      0.05305000
C       1.86699770      0.24516262     -0.00516737
C       0.78806894     -0.55691347     -0.00534013
C      -0.56344766     -0.04395948     -0.00081350
O      -0.70688247      1.29540978     -0.00023230
N      -1.56826498     -0.85824375     -0.00096340
N      -2.81418976     -0.09579147      0.00026714
H       3.37904264     -1.12949895     -0.13481078
H       3.87974109      0.48195120     -0.25853224
H       1.72959177      1.31881172     -0.00664283
H       0.87771018     -1.63509253     -0.00390166
H      -1.68662620      1.40081085     -0.00024287
H      -3.33732921     -0.41940199      0.80847530
H      -3.34096834     -0.42261397     -0.80423138
