17
b3lypvtz=-191970.13307073
C       2.58508406     -0.62390244     -0.25452176
N       1.33080443     -0.61037231     -0.40458194
C       0.54518732      0.36300267      0.24101194
C       0.75622130      1.67272116      0.07506346
C      -0.62203428     -0.20925018      1.00012964
C      -1.71151623     -0.81112411      0.08123649
N      -2.41403405      0.12403993     -0.78977584
H       3.11368410      0.07538702      0.40153462
H       3.17751860     -1.35916368     -0.79367079
H       0.09541944      2.40082643      0.52336294
H       1.56334932      2.04165746     -0.54289442
H      -0.26221303     -0.99635110      1.67072296
H      -1.06203288      0.57354203      1.62174678
H      -2.45210680     -1.30870714      0.71140895
H      -1.25783674     -1.58187563     -0.54284335
H      -1.76059197      0.59832214     -1.40232670
H      -2.87768858      0.84288474     -0.24556898
