13
b3lypvtz=-232208.5809961
N       3.48541220     -0.39721556     -0.13354201
N       2.25959812     -0.68092376      0.43463005
N       1.40645641      0.18463158      0.18655459
N       0.19831327     -0.10533165      0.76154029
N      -0.86825264      0.49251131      0.12292939
C      -2.02577128      0.04991425      0.40510005
N      -3.16090064      0.53603047     -0.21865347
H       3.59991891      0.59294760     -0.33461303
H       4.21567814     -0.75664212      0.46377609
H       0.10185793     -1.09181713      1.00438366
H      -2.20669558     -0.77011837      1.10423048
H      -3.01198832      1.39769125     -0.72388708
H      -3.99372653      0.54822213      0.34885100
