15
b3lypvtz=-214532.1645052
N      -1.54748268      1.04790549      1.00603355
C      -0.73713615      0.33486557      0.02369767
C      -0.76339194     -1.18087832      0.25379027
O       0.47566805     -1.67331713     -0.27490033
C       1.40631634     -0.67535067     -0.31035694
N       2.57755284     -0.93267609     -0.69602586
C       0.75981112      0.61422751      0.16330613
H      -1.47198454      2.04918635      0.86857720
H      -2.52931461      0.81977782      0.89373655
H      -1.03628447      0.53156239     -1.01506086
H      -1.57205656     -1.69608551     -0.26270229
H      -0.82249307     -1.39474997      1.32477415
H       3.14798687     -0.09226386     -0.68550336
H       0.99881046      0.77444454      1.21860948
H       1.11399834      1.47325188     -0.40417538
