13
b3lypvtz=-239469.0788932
O       1.94374681      0.29605207     -1.89377969
C       1.72130372     -0.11410221     -0.78156098
C       0.60700885      0.46769662      0.07419655
O      -0.07525787      1.46314312     -0.67431404
C      -0.29900593     -0.63767678      0.55138552
C      -1.58849911     -0.79182468      0.23297163
O      -2.34277467     -0.00064228     -0.55296793
H       2.30836362     -0.93444358     -0.33415011
H       1.09552843      0.93959819      0.94217270
H       0.42227231      1.55323777     -1.50569037
H       0.14207601     -1.36105643      1.22386540
H      -2.15577383     -1.62296501      0.63330568
H      -1.77878834      0.74318318     -0.83413437
