12
b3lypvtz=-228825.98552951
C      -2.94951860     -0.28184758     -0.00011620
N      -1.69899509     -0.51107558     -0.00006091
C      -0.82967989      0.56800546     -0.00003131
C       0.49836687      0.37574756     -0.00000412
F       1.29541818      1.46318601      0.00001265
C       1.20640064     -0.90356219     -0.00001970
N       2.46878506     -1.05288431      0.00001313
H      -3.37443164      0.72752191      0.00004919
H      -3.64001956     -1.11892118      0.00002620
H      -1.21702491      1.58721108     -0.00004510
H       0.56079683     -1.77700940     -0.00001935
H       2.93970311     -0.14557778      0.00003052
