15
b3lypvtz=-193613.67385038
C      -3.11287999      0.69903492      0.00017195
C      -2.32633331     -0.62000334     -0.00017350
C      -0.88113596     -0.44316093     -0.00008005
C       0.31590620     -0.30258786     -0.00001644
C       1.75600688     -0.12736983      0.00008875
C       2.24313476      1.30351242     -0.00013782
O       2.51067420     -1.07726064      0.00035035
H      -4.18453848      0.49840797      0.00008176
H      -2.87568051      1.29357471     -0.88164727
H      -2.87573766      1.29307759      0.88234146
H      -2.60101118     -1.22016171      0.87234206
H      -2.60094293     -1.21966111     -0.87305598
H       1.86029837      1.82865762      0.87756872
H       1.86043042      1.82833993     -0.87809146
H       3.33045720      1.31969328     -0.00005752
