14
b3lypvtz=-180359.71633925
C      -2.62943703     -0.01664700     -0.56896328
C      -1.58405630      0.04160313      0.01802185
C      -0.31603836      0.08877360      0.75056102
C       0.61794661      1.24796439      0.27410068
C       1.60225439      0.52603518     -0.61502476
C       1.47464367     -0.78705909     -0.43663019
N       0.50376996     -1.13144052      0.51968439
H      -3.55176624     -0.06319164     -1.09208737
H      -0.53850869      0.18141659      1.81428881
H       1.11538668      1.70350467      1.13612053
H       0.05425961      2.03291797     -0.22940862
H       2.34294832      1.01157439     -1.22856547
H       2.05556766     -1.57584151     -0.89181506
H      -0.04355327     -1.95313816      0.30432249
