11
b3lypvtz=-213011.03337287
N       0.95284686      2.11474567      0.00814498
C       0.73296765      0.98451797      0.00038612
C       0.67527081     -0.45383426      0.00269427
N       1.91158071     -1.03297355     -0.03543570
C      -0.49335959     -1.14592644      0.01214712
C      -1.81279084     -0.53203880      0.00514684
O      -2.04175023      0.66017494     -0.01071557
H       1.99342326     -2.02410395      0.10880304
H       2.72571446     -0.47295131      0.14460005
H      -0.45048690     -2.22836036      0.02096545
H      -2.64633418     -1.26142589      0.01616740
