16
b3lypvtz=-227762.20773069
C       1.91180183     -1.37454803      0.52084134
C       0.78121451     -1.33445380     -0.50325270
N      -0.15477404     -0.25738617     -0.21584980
C      -0.34221079      0.62182391     -1.10316713
O      -1.18615823      1.65475266     -0.97608183
C      -1.99187795      1.66029379      0.22862017
O      -1.24442143      1.81331328      1.38037388
H       2.57645859     -2.21737392      0.32455107
H       2.50247766     -0.45809423      0.48544413
H       1.51266311     -1.48103928      1.53017253
H       0.22841684     -2.27680194     -0.46453579
H       1.19676569     -1.24834915     -1.51685883
H       0.16062728      0.64866777     -2.07300458
H      -2.63633448      2.52744927      0.12033515
H      -2.57050212      0.73254291      0.22772527
H      -0.74424648      0.98920294      1.48088713
