14
b3lypvtz=-180297.68634377
C      -1.55321939     -0.02250114     -0.12288899
C      -0.65818176     -1.23328021      0.07681172
C       0.54195251     -0.82484202      0.53811971
C       1.55865432     -0.48542163     -0.54871281
N       1.00626022      0.94750633     -0.44289578
C       0.51905196      0.65438182      0.92946829
C      -0.49284385      1.08703276     -0.03051122
H      -2.04440233     -0.10806938     -1.09481654
H      -2.33835280      0.17673585      0.61568641
H      -0.73039607     -2.06337857     -0.61667091
H       1.45116762     -0.98100248     -1.51335160
H       2.60769285     -0.41548470     -0.26097036
H       0.90333761      1.14076991      1.81622922
H      -0.77092090      2.12755347     -0.14339712
