16
b3lypvtz=-181120.6715135
C       2.62890611     -0.29848338      0.32505189
C       1.53360554      0.19289925     -0.24150368
C       0.19667033     -0.47043406     -0.21006917
C      -0.98577452      0.28280533      0.39620388
C      -1.15371021      1.01580150      1.48059022
C      -1.81317374     -0.06461866     -0.82238756
N      -0.55330297     -0.47127827     -1.50536183
H       3.57215007      0.23095188      0.29476978
H       2.62083158     -1.25092304      0.84285065
H       1.56183430      1.14440682     -0.76232795
H       0.28936118     -1.46921721      0.23695008
H      -0.35132696      1.15191853      2.19486041
H      -2.09497647      1.50742237      1.69285633
H      -2.51871244     -0.88394599     -0.63778900
H      -2.34759486      0.75167244     -1.31291971
H      -0.58478693     -1.36897751     -1.97177436
