12
b3lypvtz=-223846.57447328
O      -2.25411279      1.10003015      0.15152277
C      -1.70369858     -0.18591324     -0.05378707
C      -0.20813922     -0.18573739     -0.03377399
N       0.47840106      0.92514673      0.15916736
N       1.76008719      0.49127065      0.10482968
H       2.52078693      1.13821861      0.22212047
C       1.78452925     -0.83577285     -0.11414632
N       0.55738518     -1.30034377     -0.20760057
H      -1.52329916      1.71917397      0.26438435
H      -2.04176932     -0.58616972     -1.01575483
H      -2.06497516     -0.87311279      0.71897501
H       2.69490463     -1.40679033     -0.19603686
