14
b3lypvtz=-203681.98431157
C      -1.23952344      0.90454521     -0.14413549
C      -0.79858471     -0.48942726      0.24807563
C      -0.24874957      0.70400093      0.96164647
O       1.09796570      1.07534991      0.74814965
C       1.82378562      0.32755836     -0.12730418
N       1.49076066     -0.69105017     -0.78732116
C       0.15878254     -1.26334943     -0.63758415
H      -2.23698561      1.23061463      0.11591007
H      -0.85672706      1.30376840     -1.07468642
H      -1.51489718     -1.09127236      0.79265289
H      -0.52969676      0.91596934      1.98259780
H       2.82234265      0.74350721     -0.21348449
H      -0.25767641     -1.40285193     -1.63955062
H       0.28920356     -2.26736284     -0.22496598
