13
b3lypvtz=-190431.08575852
C      -3.73935300     -0.35680479     -0.00132151
C      -2.59645440      0.02138209     -0.00019198
C      -1.27769505      0.54673334      0.00141178
N      -0.23950879     -0.20999350      0.00270186
C       1.01130619      0.35509246      0.00963612
C       2.09866017     -0.44558031      0.00593747
N       3.40415075     -0.03628710     -0.05419251
H      -4.73938580     -0.71158600     -0.00322734
H      -1.19660949      1.63973601      0.00103389
H       1.11918737      1.44299730      0.01134847
H       1.94402877     -1.51684512      0.00441164
H       3.60871729      0.93177589      0.13146432
H       4.11077500     -0.67805828      0.25886681
