12
b3lypvtz=-200543.56435883
N      -0.06678842      2.31832751     -0.00003535
C       0.01331051      1.16567560     -0.00003150
C       0.06673402     -0.25390573     -0.00000247
C       1.36016247     -0.94136662      0.00001360
N       2.52900435     -0.44451250      0.00000266
C      -1.10008468     -0.96156577      0.00001384
N      -2.34341456     -0.45177049     -0.00003607
H       1.28023797     -2.03154295      0.00005019
H       2.50376506      0.57750059     -0.00002898
H      -1.04535800     -2.04334169      0.00004607
H      -3.14742090     -1.05007082      0.00013864
H      -2.49393482      0.54376787      0.00002938
