18
b3lypvtz=-181914.56886434
C      -3.11765538     -0.61852438     -0.01635231
C      -1.87255342      0.20549232      0.03639015
C      -0.62925115     -0.27362176      0.01310578
C       0.60364209      0.54920572      0.08687427
N       0.71328801      1.76641498     -0.27818227
C       1.83328147     -0.14932553      0.62649518
C       2.49319071     -1.06031425     -0.41889839
H      -3.73441684     -0.45416597      0.87166150
H      -3.73295634     -0.33747061     -0.87596876
H      -2.89572240     -1.68319129     -0.08847047
H      -2.01672342      1.28050295      0.11423584
H      -0.48608815     -1.35004600     -0.01081902
H      -0.16199995      2.11022072     -0.67638895
H       2.53753507      0.61951334      0.94124817
H       1.56262041     -0.74015007      1.50628644
H       3.37073723     -1.55329477      0.00148843
H       2.81202745     -0.47899457     -1.28460454
H       1.81364762     -1.83947083     -0.76938204
