16
b3lypvtz=-204415.04567315
C      -1.58593050      0.48304091      0.12701162
C      -1.34228696     -1.00886642     -0.21568754
N      -0.03521257     -1.01154049      0.52165294
C      -0.16132361      0.49157760      0.70821039
C       1.00960777      0.74105669     -0.27705747
C       1.14632096     -0.80117411     -0.36684920
O       2.12136609      1.47983020      0.17704190
H      -1.76733106      1.16022301     -0.70775878
H      -2.36155800      0.63650263      0.87509042
H      -2.05852148     -1.70967077      0.21278531
H      -1.24013682     -1.22969994     -1.28137839
H      -0.01530354      0.89929027      1.71068726
H       0.70196985      1.22594081     -1.20374114
H       1.06111142     -1.25395744     -1.35730017
H       2.06432288     -1.16731708      0.10070873
H       2.46290561      1.06476416      0.97658411
