12
b3lypvtz=-223860.52043208
C      -0.96696509      1.13914174      0.13906058
C      -1.34938494     -0.16307124      0.02382953
N      -0.27332119     -1.00002458     -0.11612205
C       0.78053547     -0.21145617     -0.10192903
N       0.43279822      1.08664840      0.05931531
N       2.09567567     -0.61593574     -0.30365579
O      -2.61113858     -0.65348307      0.05313467
H      -1.51139783      2.05112248      0.28939873
H       1.04876856      1.87490219     -0.02658086
H       2.74368040     -0.27521116      0.39362804
H       2.14718067     -1.62255242     -0.36695355
H      -2.53643135     -1.61008043     -0.04312556
