14
b3lypvtz=-222192.07666285
N      -2.73774221     -0.63721065      0.00663137
C      -1.62081844      0.12572603      0.07998921
N      -0.45601869     -0.35860813     -0.13716818
C       0.66801359      0.45513592     -0.03976785
N       0.49446079      1.85782272      0.06512805
N       1.85883189     -0.01252900      0.00783685
N       2.02281038     -1.38979988     -0.05123016
H      -2.66074875     -1.58200770     -0.33017304
H      -3.64700254     -0.21981636      0.06583964
H      -1.79775778      1.16241186      0.37009760
H       0.02524550      2.24597822     -0.74666048
H       1.40263845      2.29458687      0.15674053
H       2.83121425     -1.64020491      0.49871983
H       1.19721956     -1.89927299      0.24931362
