15
b3lypvtz=-240240.81812524
C      -3.21106574      0.19740641      0.01723301
C      -1.76188973      0.27318411      0.44573274
O      -0.99259716     -0.56297784     -0.42885019
C       0.32601311     -0.70519434     -0.08382987
O       1.02546774      0.54240548     -0.38349218
C       2.32767474      0.57009854     -0.08543851
O       2.95946031     -0.33118205      0.39571143
H      -3.57986712     -0.82660096      0.07880407
H      -3.32507229      0.54290567     -1.01031530
H      -3.82605132      0.82660521      0.66215926
H      -1.38998765      1.29949349      0.39016085
H      -1.63591056     -0.07867140      1.47690630
H       0.47136377     -0.91785440      0.97955333
H       0.75761715     -1.49626384     -0.69286365
H       2.74128176      1.55226791     -0.35111830
