19
b3lypvtz=-195138.75240009
C       2.07373617     -1.62583109      0.09629824
C       1.41997347     -0.62048770     -0.47052925
C       0.69657475      0.47049269      0.27367474
C       1.31395451      1.83881402      0.01007330
O      -0.66892658      0.55923042     -0.13619810
C      -1.49871781     -0.50374681      0.31288761
C      -2.90896200     -0.24677562     -0.17963768
H       2.11921786     -1.73576962      1.17412610
H       2.59360354     -2.37192770     -0.49083822
H       1.38371391     -0.53513058     -1.55345699
H       0.73617910      0.25317914      1.35033040
H       2.35444691      1.85892535      0.33471761
H       0.75905011      2.60815314      0.54721130
H       1.27728485      2.07089843     -1.05534183
H      -1.47543909     -0.55085125      1.41050964
H      -1.12884093     -1.46488465     -0.06197477
H      -3.28282637      0.70468997      0.19985751
H      -2.93439621     -0.21341780     -1.26929551
H      -3.57776319     -1.04082935      0.15691790
