14
b3lypvtz=-203681.61547406
C      -1.84479770     -1.31757776      0.13893376
C      -0.81007140     -0.36060297     -0.41947790
C      -1.12475636      1.14901063     -0.41758823
O       0.06931078      1.44411563      0.35547086
C       0.36703388      0.04364353      0.51234392
C       1.71571314     -0.31132930      0.07244117
N       2.76544418     -0.61905680     -0.28456497
H      -1.43347297     -2.32240800      0.24937648
H      -2.20327221     -0.98800490      1.11618926
H      -2.70614132     -1.38537509     -0.52802382
H      -0.44933320     -0.70367730     -1.38735113
H      -2.02913483      1.42742976      0.12936396
H      -1.11018950      1.65341985     -1.38415713
H       0.24212950     -0.28011729      1.55063878
