18
b3lypvtz=-205215.03514952
C       3.10025842     -0.36249145     -0.32024475
C       1.94512851      0.21397731      0.50909757
C       0.63855772     -0.47870759      0.25616957
C      -0.49864152      0.11945243     -0.10912208
O      -0.61177769      1.48756658     -0.12881883
N      -1.66804943     -0.53466217     -0.53146469
C      -2.85838593     -0.39283916      0.31665754
H       3.23472500     -1.42844845     -0.12222737
H       2.91092568     -0.24652317     -1.38880777
H       4.04146260      0.13915997     -0.08649725
H       1.83410813      1.27866786      0.30160021
H       2.20596247      0.13599008      1.57082449
H       0.61493814     -1.55757088      0.36369431
H      -1.24186856      1.71240954     -0.82459655
H      -1.47455409     -1.50429365     -0.73695774
H      -3.07445781      0.66259414      0.47172106
H      -3.71306474     -0.84081553     -0.18914141
H      -2.74091390     -0.86158983      1.30108871
