15
b3lypvtz=-214518.31683321
C       3.11357212     -0.16827953     -0.00011387
N       1.94973629      0.31343876      0.00038953
C       0.81770483     -0.60005681      0.00032818
C      -0.49589064      0.15486503      0.00011442
N      -0.67056139      1.40370315      0.00003671
O      -1.51891624     -0.72680654      0.00002419
C      -2.83710433     -0.16712478     -0.00015904
H       3.96548250      0.50773513     -0.00019747
H       3.33322637     -1.24280138     -0.00086095
H       0.83718609     -1.25365981      0.87810166
H       0.83736589     -1.25392877     -0.87724521
H       0.23767366      1.86305345      0.00015017
H      -2.99240163      0.44985575     -0.88467547
H      -2.99261098      0.44994035      0.88426163
H      -3.51607555     -1.01571400     -0.00019950
