17
b3lypvtz=-191953.80074987
C      -3.02097218      0.05791088     -0.24714921
N      -1.90979012      0.43932527      0.20762778
C      -0.86832413     -0.55392337      0.41568575
C       0.38619042     -0.18257182     -0.35619640
C       1.68929287     -0.96531918     -0.06500746
N       2.43632808      0.31338533     -0.13345704
C       1.17833136      1.07825966      0.06078281
H      -3.24830912     -0.98899203     -0.48773664
H      -3.81027541      0.78743344     -0.41595974
H      -0.63730899     -0.56368607      1.48543692
H      -1.19975395     -1.56646680      0.13681111
H       0.17151219     -0.16782954     -1.42518460
H       2.00429892     -1.71561684     -0.79253975
H       1.67213129     -1.42665629      0.93080937
H       3.13980223      0.44365982      0.58253283
H       1.08471151      1.96540054     -0.56596774
H       0.97242202      1.35832700      1.10040202
