18
b3lypvtz=-205205.40769209
C       2.27809573     -0.19677319     -0.42541498
C       0.86620551      0.08584433      0.04388233
N       0.46593119      1.48792138      0.05391456
C       0.28604226     -0.76702976      1.14301750
C      -0.22309121     -0.91338537     -0.26805252
C      -1.63725653     -0.49010437     -0.63556433
O      -2.18142239      0.52006993      0.19163295
H       3.00906431      0.30662252      0.21384535
H       2.42949871      0.15754669     -1.44909979
H       2.49980289     -1.26484166     -0.40775346
H       1.00839471      2.00908317      0.73481270
H       0.64043061      1.91258358     -0.85107508
H       0.90527594     -1.54890714      1.56120061
H      -0.38376892     -0.28460302      1.84093312
H       0.10560245     -1.79360214     -0.81018229
H      -2.29927244     -1.35516804     -0.54992829
H      -1.65212631     -0.18244677     -1.69191873
H      -1.49575953      1.20808786      0.25041836
