13
b3lypvtz=-242084.02666522
C      -1.56959403     -0.73367152     -0.23764341
C      -0.33351944      0.11663920     -0.16805094
C      -0.34710365      1.33661879     -0.70046049
F       0.72107056      2.17137375     -0.68388530
N       0.74287872     -0.50365025      0.48073449
C       2.02017880     -0.05630938      0.73748032
O       2.83211542     -0.73900913      1.32061459
H      -2.37673128     -0.21287950     -0.74726731
H      -1.91487132     -0.99783084      0.76520274
H      -1.37019547     -1.66309754     -0.77718448
H      -1.20641493      1.76523818     -1.18957694
H       0.57720861     -1.43817099      0.82731024
H       2.22507801      0.95474921      0.37292648
