15
b3lypvtz=-237797.66784502
O      -2.50111567      1.00628933      1.03722714
C      -1.60471903      0.03752071      0.50555659
C      -0.69080168      0.64534671     -0.56413761
N       0.24410835     -0.30090485     -1.14717781
C       1.37851478     -0.70567502     -0.49825996
N       1.75523912     -0.19463402      0.60966746
O       3.01808400     -0.74270095      0.98122349
H      -2.00402396      1.60074044      1.60723780
H      -2.23028773     -0.73885065      0.06120695
H      -0.99892946     -0.42481222      1.28915766
H      -0.10944661      1.45696650     -0.12257731
H      -1.30189240      1.06947962     -1.36181543
H      -0.10344723     -0.92318975     -1.85496975
H       1.96833038     -1.46844522     -1.00197048
H       3.18038714     -0.31713066      1.82743124
