15
b3lypvtz=-191197.20512867
C      -3.13147148      0.00135886      0.19759823
C      -2.14883097      0.76158768      0.68884735
C      -0.71672151      0.51359775      0.58762038
C      -0.11057558     -0.21182471     -0.36830739
C       1.31436851     -0.47948617     -0.46436296
N       2.16448448     -0.05157487      0.39272088
N       3.46889506     -0.41193869      0.24566799
H      -4.16848550      0.28497353      0.31309712
H      -2.93496347     -0.93007769     -0.31848826
H      -2.42526403      1.65137660      1.24693953
H      -0.09198421      0.97826935      1.34240038
H      -0.70926148     -0.63635322     -1.16682630
H       1.64664696     -1.07732277     -1.32034607
H       4.08162526      0.25217636      0.69168523
H       3.76163796     -0.64486199     -0.70024611
