19
b3lypvtz=-192738.27317825
C       3.25597579     -0.34901312     -0.19518379
C       1.86090755      0.19656569     -0.19300806
C       0.84466996     -0.31863569      0.49136064
C      -0.57354759      0.18367338      0.49937715
N      -0.68836540      1.50153137     -0.12715636
C      -1.49249142     -0.81819517     -0.23668174
N      -2.92243018     -0.52251450     -0.23545413
H       3.97510020      0.39959226      0.14944869
H       3.56467923     -0.63262854     -1.20552302
H       3.34739217     -1.22673560      0.44583549
H       1.68087291      1.07013320     -0.81097384
H       1.01421767     -1.20344231      1.10049762
H      -0.90659431      0.19563795      1.55269131
H      -1.64272450      1.83299682     -0.05502622
H      -0.11163840      2.17394638      0.36549666
H      -1.16039205     -0.87925250     -1.27454389
H      -1.34911298     -1.80647535      0.20670479
H      -3.13383812      0.30179138     -0.78267026
H      -3.27561254     -0.37652667      0.70289896
