13
b3lypvtz=-213754.37978414
N       2.71418412     -0.42458429     -0.20683528
C       1.80551859      0.44875635     -0.03585328
N       0.49503609      0.26095552      0.32331482
C      -0.27326377     -0.98549160      0.17098220
C      -1.51155842     -0.10029179     -0.04089807
O      -2.67375602     -0.30638652     -0.19405032
C      -0.63661048      1.16260695      0.02729529
H       2.36543170     -1.37327605     -0.06303696
H       2.06288021      1.50245532     -0.15048566
H      -0.00180253     -1.57942915     -0.70961001
H      -0.29980568     -1.63320263      1.04971514
H      -0.56768494      1.69837796     -0.92478203
H      -0.89345489      1.86413592      0.82363217
