17
b3lypvtz=-194342.8256083
C      -0.45267983     -0.32214043     -1.22303530
C      -1.55754787      0.33970287     -0.35658790
C      -1.14493178     -0.62620332      0.78725892
C       0.19004850     -0.09374204      0.18352004
C      -0.47111507      1.31710703      0.16638800
C       1.58540316     -0.44977406      0.61649731
O       2.59182654      0.22753910     -0.13186886
H      -0.61888296     -1.35831804     -1.52178435
H      -0.05925241      0.27619521     -2.04618706
H      -2.56904435      0.58896453     -0.67042848
H      -1.36117507     -1.68476687      0.63744714
H      -1.37820199     -0.30843550      1.80414536
H      -0.65323039      1.77747470      1.13817663
H      -0.06620757      2.03332554     -0.54781006
H       1.72219958     -1.53832242      0.56436897
H       1.74029088     -0.15155392      1.65538370
H       2.50250061     -0.02705238     -1.05548405
