12
b3lypvtz=-202866.13360453
C       2.54466474      0.80858654     -0.49471332
C       1.76672382     -0.15668104     -0.03178533
O       0.39873337     -0.06225613     -0.11408521
N      -0.21908532     -1.17783928      0.42799196
C      -1.49749203     -1.10775895      0.36003464
C      -2.27762852     -0.05709679     -0.18548970
C      -2.98245384      0.80582789     -0.63520023
H       3.61598565      0.70917005     -0.41751736
H       2.13727293      1.69935174     -0.95077249
H       2.11453668     -1.06862725      0.43330468
H      -2.00718553     -1.96822211      0.77720290
H      -3.59407196      1.57564534     -1.03597055
