17
b3lypvtz=-191961.11995762
C      -0.59807844      1.93747362     -0.58612426
C      -0.60043878      0.51455259     -0.09623090
N      -1.64005878     -0.20079733     -0.24097795
C      -1.67891518     -1.54047795      0.32122436
N       0.55254619      0.11188914      0.61005802
C       1.40840222     -0.98114298      0.17929983
C       1.90390765      0.42494443      0.18831416
H       0.11210331      2.08118109     -1.40385169
H      -1.59316571      2.19388668     -0.93690375
H      -0.30723964      2.61687442      0.21801636
H      -2.72006338     -1.84733568      0.41639483
H      -1.18682227     -2.26790023     -0.33283028
H      -1.20331085     -1.60436589      1.30546324
H       1.71727072     -1.67695286      0.94950740
H       1.20945073     -1.42452921     -0.78936598
H       2.04856724      0.90578917     -0.77223907
H       2.57584498      0.75691096      0.97024569
