14
b3lypvtz=-226976.35077796
C      -1.41809110     -0.09970785      1.42215540
C      -0.41052814      0.25457816      0.35866665
C       0.37355260     -0.82029285     -0.21747116
N       1.25516440     -0.61372881     -1.12718171
O       1.88382048     -1.80279059     -1.52877924
C      -0.24325428      1.53379013     -0.04508886
O       0.61869441      1.95649747     -0.97638847
H      -1.94062677      0.78957870      1.77376472
H      -2.17213764     -0.79851667      1.05024206
H      -0.94493261     -0.56745233      2.28968217
H       0.20907144     -1.83860294      0.13345305
H       2.50723903     -1.50685903     -2.19985703
H      -0.82599296      2.34180760      0.38067587
H       1.10812113      1.17179900     -1.31387344
