14
b3lypvtz=-203672.20098707
C       2.07661394     -1.70020777     -0.00030539
C       1.49728120     -0.64928197      0.00001679
C       0.71843848      0.55671587      0.00005845
O       1.48631377      1.67566821     -0.00002513
N      -0.54289382      0.63814577      0.00015250
C      -1.37420923     -0.56013967      0.00028056
C      -2.84860823     -0.18105267     -0.00016934
H       2.60659524     -2.62060086     -0.00036088
H       0.86659259      2.42041255     -0.00000118
H      -1.14710030     -1.17543315      0.87749650
H      -1.14668852     -1.17597429     -0.87644815
H      -3.09375030      0.41169519     -0.88212750
H      -3.47558917     -1.07426981     -0.00004498
H      -3.09414865      0.41222658      0.88131977
