16
b3lypvtz=-204368.52700905
O       0.69654945     -0.22970163      0.07184947
C       0.49209292      0.66285202     -1.00053840
C      -0.77318795      1.57981874     -0.67549177
C       0.28677632      2.53666836     -0.03590235
N       0.96912397      3.91628244      0.01920850
C       2.23331445      3.12055445     -0.36138792
C       1.29008670      2.03783281     -0.99255932
H       1.52852937     -0.69177875     -0.06964914
H       0.47292567      0.13348512     -1.95724171
H      -1.22835431      1.94990674     -1.59217682
H      -1.52517116      1.13228061     -0.02753645
H       0.47950056      2.12742488      0.95613783
H       0.70592305      4.44168338     -0.81394351
H       2.73618576      2.80806676      0.55183043
H       2.92704712      3.64794382     -1.01556839
H       1.03465809      2.45328025     -1.97463044
