18
b3lypvtz=-205199.07014761
C       0.43667335     -1.46591818      0.93092985
C      -0.09207159     -0.21394865      0.26266982
C      -1.14504493     -0.37648886     -0.81342988
C      -1.51875378      0.16855043      0.53898983
O      -1.82764743      1.53187974      0.68577319
C       0.92367675      0.89841847      0.08621645
N       1.94957466      0.54171425     -0.90396269
H       0.87363372     -1.23576525      1.90648917
H       1.20391984     -1.94610041      0.31867229
H      -0.35543523     -2.20013714      1.08565636
H      -1.46981255     -1.37327072     -1.08264142
H      -1.10738486      0.32661731     -1.63452898
H      -2.07585294     -0.48153970      1.20846876
H      -2.64999742      1.70708209      0.21808946
H       1.34017984      1.14342429      1.07481333
H       0.41331070      1.79320807     -0.26502628
H       2.57342314     -0.16601632     -0.53438408
H       2.52760877      1.34829058     -1.10726218
