15
b3lypvtz=-214520.12780673
C       2.21647164     -0.25222464      0.36600221
C       0.79470006      0.22175826      0.49757528
C      -0.22324643     -0.02444149     -0.56830526
N       0.36579159      1.30667325     -0.38369746
C      -1.63653578     -0.29838764     -0.18385438
N      -2.40634789      0.33842903      0.59534125
O      -2.08420535     -1.41917090     -0.79680502
H       2.32048885     -1.27617818      0.72949306
H       2.88712739      0.38376420      0.94730723
H       2.53666651     -0.21614673     -0.67487679
H       0.39706962      0.22766550      1.50798287
H       0.08873239     -0.53272114     -1.47148139
H      -0.29225768      1.92732450      0.07819946
H      -1.96865279      1.16284963      0.99591306
H      -2.99580211     -1.54919364     -0.49691958
