16
b3lypvtz=-204445.05310089
C       3.17496848      0.15493169     -0.64996891
C       2.15811935      0.53453189      0.11160778
C       1.16200254     -0.40007111      0.73795920
N      -0.20129328      0.04065564      0.47541570
C      -0.96594087     -0.74904435     -0.13731074
O      -2.24198603     -0.47613459     -0.45069022
C      -2.73312692      0.81015460     -0.05230817
H       3.34897967     -0.88814524     -0.88863047
H       3.87410886      0.87121751     -1.06132066
H       1.99949557      1.58688414      0.32439503
H       1.30588635     -0.38851521      1.82438391
H       1.35035787     -1.42768731      0.39756995
H      -0.69965171     -1.74902944     -0.48905011
H      -2.15171415      1.60423720     -0.52026586
H      -2.67304740      0.92507684      1.02974290
H      -3.76681331      0.84504573     -0.38479931
