16
b3lypvtz=-204451.53311512
C       2.04391828      0.94022786     -0.47667342
C       1.20208803      0.01192517     -0.02167819
C       1.65704392     -1.37839493      0.33911881
C      -0.25086561      0.32482240      0.10755483
N      -0.74200996      1.42712843      0.50922550
C      -1.25133302     -0.74858027     -0.27683467
O      -2.57328900     -0.29417039     -0.19891936
H       3.10166060      0.73766877     -0.58232775
H       1.70100412      1.92122423     -0.77823654
H       1.37669321     -1.63483948      1.36338118
H       1.20239549     -2.12849388     -0.31207500
H       2.73835264     -1.46657093      0.24757362
H      -0.02450755      2.09558015      0.78180962
H      -1.02500899     -1.09321660     -1.29491530
H      -1.10494104     -1.61366234      0.38414911
H      -2.51052512      0.61564680      0.14053356
