11
b3lypvtz=-264632.27723237
C       0.17223916      0.42144346      0.65673253
C      -0.97286936      0.59916728     -0.04248774
O      -1.82404783      1.57508947      0.29188113
O      -1.40647255     -0.10814470     -1.09130130
C       1.16385338     -0.58040002      0.40424655
N       2.23140772     -0.77709156      1.02485770
F       0.82807784     -1.41062101     -0.69360768
H       0.36772296      1.08730681      1.48063842
H      -2.57560743      1.54620637     -0.31403751
H      -0.75135910     -0.79878021     -1.28760723
H       2.76705523     -1.55417587      0.64985259
