19
b3lypvtz=-192727.00445097
C       3.25673684      0.37553790      0.21758295
N       2.12047703      0.25764178     -0.68821082
C       0.84258812      0.31854719     -0.10410001
C      -0.15766436     -0.53954520     -0.35566487
N      -1.45575985     -0.51362741      0.17142107
C      -2.51084128     -0.82038208     -0.78078618
C      -1.77121740      0.56957757      1.07498303
H       4.18164399      0.38175970     -0.35964565
H       3.31518042     -0.42687630      0.96686609
H       3.19516154      1.32537454      0.75197892
H       2.21644983     -0.53803526     -1.30411020
H       0.70817265      1.16413257      0.55863382
H       0.01356519     -1.37224641     -1.03118517
H      -2.69647251     -0.00405100     -1.49660103
H      -3.43961571     -1.02599138     -0.24674614
H      -2.24280724     -1.71118422     -1.34981221
H      -1.72989663      1.56014761      0.59183516
H      -1.07011695      0.57307678      1.91078288
H      -2.77558366      0.42614364      1.47277835
