16
b3lypvtz=-204430.22157561
C      -1.79733914     -0.86752086     -0.18022426
C      -1.00871453      0.33295141     -0.64444741
C       0.52575406      0.39462101     -0.37990740
C       0.17766381      1.65345726      0.43959007
O      -1.23304852      1.50792316      0.18027876
N       1.06770616     -0.68357127      0.40704826
C       2.14567143     -1.21791646      0.02792998
H      -1.59238326     -1.73032787     -0.81809265
H      -2.86382830     -0.64434632     -0.24190981
H      -1.54813625     -1.12761073      0.84637925
H      -1.24412733      0.56286034     -1.68898366
H       1.11825554      0.58928360     -1.28144337
H       0.41206051      1.57542938      1.50292472
H       0.57572962      2.58899313      0.03808401
H       2.68800774     -0.90715653     -0.87408257
H       2.57672847     -2.02706925      0.61291846
