10
b3lypvtz=-202144.80565356
C       3.50975086      0.11174739      0.37562584
C       2.33480388      0.16816184      0.11435269
C       1.00759600      0.23097450     -0.17999693
C      -0.17195616      0.28038757     -0.43846569
C      -1.57903794      0.42973154     -0.78487336
N      -2.34857671     -0.64822149     -0.47319934
O      -2.00626603      1.44095872     -1.30716856
H       4.54545529      0.06598694      0.60448700
H      -3.33119255     -0.61231186     -0.68528853
H      -1.96057664     -1.46741515     -0.04167312
