18
b3lypvtz=-205195.8056739
C       0.70383666     -1.15069224     -0.88241193
C       0.08244695     -0.00139042     -0.09462056
C      -1.11780480     -0.45276398      0.78446245
N      -2.04118630     -0.02447059     -0.29414625
C      -0.97322016      0.78850922     -0.92007433
C       1.13243565      0.85908819      0.59509159
O       1.87977581      0.16207738      1.58827167
H       1.25417380     -1.83067845     -0.22729247
H      -0.06961970     -1.73522886     -1.38120495
H       1.39203068     -0.77846704     -1.64626019
H      -1.19283832      0.12783173      1.70981117
H      -1.17891554     -1.51447872      1.03220007
H      -2.85756806      0.49007477      0.00968987
H      -0.99565817      1.85264316     -0.65519453
H      -0.91752071      0.70063402     -2.00782601
H       1.79924834      1.30247693     -0.15725157
H       0.64786303      1.68078542      1.12433943
H       2.45252083     -0.47595052      1.15343567
