12
b3lypvtz=-200531.91195343
C       2.87794542     -0.61513016     -0.00001612
C       1.78935794      0.15036672      0.00000668
N       0.48609335     -0.33049736      0.00001505
C      -0.66200289      0.44103031      0.00000375
N      -0.81388194      1.70395572     -0.00000616
C      -1.86305075     -0.38162888      0.00000254
N      -2.79085717     -1.06167806      0.00000050
H       2.82613693     -1.69611175     -0.00003465
H       3.85644964     -0.16196375     -0.00001512
H       1.87213154      1.22780219      0.00002521
H       0.35859653     -1.33026246     -0.00000144
H       0.06732040      2.21100950     -0.00000724
