15
b3lypvtz=-193601.18676325
C       2.27114521      0.10014008     -1.25513320
C       1.22658439      0.03660872     -0.66750589
C      -0.03088295     -0.04566638      0.07951163
C      -0.74211720      1.33077787      0.06395975
C      -0.94333225     -1.14681579     -0.47866283
C       0.33999681     -0.33227064      1.54580563
O      -0.13082885     -1.21467928      2.20821960
H       3.18954531      0.15303612     -1.78487542
H      -0.95941366      1.62098446     -0.96335026
H      -1.67939909      1.27329511      0.61856667
H      -0.11641988      2.10492497      0.50870972
H      -1.21796748     -0.91849710     -1.50786822
H      -0.44380957     -2.11356857     -0.45717890
H      -1.84776317     -1.22143428      0.12368669
H       1.08466238      0.37336470      1.96611503
