10
b3lypvtz=-223077.96048943
C      -0.18854008      0.52649672      1.01777431
C       0.30009608      0.02828761     -0.20646347
N      -0.63229347     -0.77583240     -0.73328891
N      -1.60131493     -0.73362518      0.15152186
N      -1.39911581      0.02844874      1.22519614
C       1.57416902      0.26596172     -0.89168936
O       2.44394842      0.98223389     -0.45486050
H       0.27757686      1.19640628      1.71794488
H      -2.45681441     -1.25090814      0.02768979
H       1.68228833     -0.26746925     -1.85382475
