15
b3lypvtz=-214514.1384045
C      -1.51819694      1.43457409     -0.15276925
C      -1.50453787      0.10181715     -0.02906302
N      -2.61157528     -0.73529350     -0.06950159
O      -0.38138888     -0.66827004      0.09958006
C       0.81251255     -0.03780332      0.40828245
C       1.91830430     -0.34157790     -0.26628912
N       3.18327303      0.21664567     -0.06186196
H      -2.45769163      1.96222171     -0.21145801
H      -0.60632168      1.99613787     -0.26347429
H      -3.49244092     -0.25659189      0.02463668
H      -2.53601594     -1.53480157      0.54199129
H       0.76936936      0.66304829      1.23388829
H       1.85274426     -1.03916459     -1.09181825
H       3.28907710      0.70845212      0.81358476
H       3.94358556     -0.43258908     -0.19672804
