14
b3lypvtz=-224598.51244934
N      -1.43372701     -1.44271147     -0.30469280
C      -1.20135114     -0.23600910     -0.01783667
O      -2.18843690      0.64939901      0.30565736
C       0.20693847      0.29810238     -0.06041426
N       0.49608205      1.50915610     -0.31794419
C       1.30874728     -0.70853051      0.21700327
N       2.67088423     -0.22955060      0.08827790
H      -2.43049522     -1.65127048     -0.25077478
H      -1.80618892      1.45392260      0.67766639
H      -0.32837416      2.07420632     -0.52620251
H       1.14759997     -1.56616776     -0.43817614
H       1.15193125     -1.09878251      1.22818159
H       2.78758227      0.62046976      0.62884677
H       2.84846484      0.04189627     -0.87216493
