17
b3lypvtz=-191975.17753154
C      -1.87901786     -1.69998814      0.09225665
C      -1.41208551     -0.47687091     -0.13369334
C       0.03019443     -0.13032522     -0.08062078
N       0.90059398     -1.07067565     -0.03795679
C       2.30076989     -0.71853764      0.02403005
N       0.33800011      1.21656106     -0.11369957
C      -0.58928527      2.31290485      0.11095284
H      -2.93741099     -1.91420507      0.03151393
H      -1.20370625     -2.50943172      0.33370016
H      -2.10551389      0.31888022     -0.37255730
H       2.64132794     -0.18963974     -0.87815962
H       2.54699656     -0.07992456      0.88751192
H       2.89803307     -1.62492517      0.11306286
H       1.30795233      1.43687802      0.02288886
H      -1.13578456      2.22358454      1.05412284
H      -1.31448236      2.40590945     -0.69955424
H      -0.01895963      3.23982968      0.14142552
