14
b3lypvtz=-203678.33489218
C      -1.36782293      0.80279177      0.06801067
C      -0.24261863      1.48678172     -0.19875579
C       1.02409331      0.75363674     -0.32511042
O       1.46031888     -0.04330850      0.83282259
C       0.98708906     -0.71102442     -0.32670651
C      -0.34211834     -1.42545804     -0.24194906
N      -1.41603670     -0.55892312      0.23221892
H      -2.31303812      1.30876584      0.21756700
H      -0.25600792      2.56459701     -0.24461133
H       1.85000162      1.24959216     -0.82200360
H       1.74187548     -1.26774158     -0.87911115
H      -0.25974447     -2.28940773      0.42418667
H      -0.55672797     -1.81021130     -1.24934922
H      -2.33049326     -0.97503656      0.25124123
