11
b3lypvtz=-233856.39084821
C      -2.16825560     -0.55141063      0.77929699
N      -0.95834299     -0.45228141      1.13347654
C      -0.12128649      0.39386928      0.39487280
N      -0.43986336      1.57701326      0.08138702
N       1.16870390     -0.21978800      0.20871250
N       1.63141005     -0.04362819     -0.91688154
O       2.87610488     -0.57342851     -1.05203965
H      -2.84131804     -1.15831811      1.37878292
H      -2.57175089     -0.04959647     -0.10273085
H       0.32674118      2.05180714     -0.39180952
H       3.09785737     -0.97423835     -0.18667545
