18
b3lypvtz=-181903.46359073
C      -1.96077438      0.00000016      0.76818153
C      -1.08883663      0.00000023     -0.49061784
C      -0.14527100     -1.23658883     -0.57568396
C       1.22405187     -0.73981520     -0.16604059
N       1.22336579     -0.00000039      1.11521169
C       1.22405213      0.73981476     -0.16604039
C      -0.14527058      1.23658902     -0.57568354
H      -2.60560654      0.88161023      0.79312736
H      -2.60560679     -0.88160974      0.79312709
H      -1.34422716     -0.00000006      1.66590931
H      -1.75569319      0.00000049     -1.35491817
H      -0.08996163     -1.61180833     -1.60100138
H      -0.49716250     -2.05707518      0.05306326
H       2.10633328     -1.30851656     -0.43237866
H       2.15977749     -0.00000063      1.50639736
H       2.10633374      1.30851590     -0.43237829
H      -0.49716177      2.05707522      0.05306403
H      -0.08996114      1.61180891     -1.60100081
