15
b3lypvtz=-191201.74598175
C       0.05729984     -1.10894842      0.22569034
C      -1.20789910     -0.38142163      0.65827061
C      -1.89345514      0.52170478     -0.29657050
N      -0.94612624      1.07868599      0.69619095
C       0.38422541      1.20788722      0.16266756
C       0.97924218      0.04199264     -0.11431606
N       2.21329967     -0.20392323     -0.71562058
H      -0.08697068     -1.78044684     -0.62529980
H       0.46026994     -1.71374499      1.04561320
H      -1.76989419     -0.77884516      1.49311393
H      -2.93359894      0.77460802     -0.13127480
H      -1.57105389      0.51487957     -1.33147821
H       0.78593581      2.20168232      0.02952454
H       2.80973859      0.60801709     -0.78118525
H       2.71898674     -0.98212736     -0.31532593
