19
b3lypvtz=-218452.28458085
C       2.23497897     -0.84084740      0.08508142
C       1.39474826      0.26618215     -0.54854910
C      -0.04655422      0.38175166     -0.03597014
C      -0.13525860      0.69175042      1.45502175
O      -0.70493892      1.46192545     -0.68598576
O      -0.66218673     -0.85246395     -0.38359035
C      -2.02044008     -1.02338615     -0.00546423
H       1.75059106     -1.80966713     -0.02978345
H       3.21567445     -0.89314203     -0.38995749
H       2.39825369     -0.66624491      1.14947146
H       1.33194874      0.09691257     -1.62803448
H       1.86970765      1.23833227     -0.40410205
H       0.21437612     -0.15279191      2.04618149
H       0.47530652      1.56355650      1.68685614
H      -1.16183219      0.92023768      1.73587640
H      -0.60345757      1.33544145     -1.63655210
H      -2.37400292     -1.91106133     -0.52680893
H      -2.63033137     -0.16720885     -0.30155415
H      -2.12826287     -1.18599151      1.07101958
