16
b3lypvtz=-204407.69286854
C      -0.69615394      1.67267807      0.60806668
C      -0.43035746      0.33230138      0.00917959
C      -1.32702396     -0.92211490     -0.10206499
C      -0.08603315     -1.14318555     -0.98024202
O      -0.22381179      0.24978329     -1.48062597
C       0.80950400     -0.59212200      0.17501557
N       2.08871874      0.00669018     -0.07625626
H       0.17746768      2.31604933      0.49750169
H      -0.91279563      1.56951874      1.67282689
H      -1.55028746      2.14786190      0.12431828
H      -2.25347003     -0.77214000     -0.65034239
H      -1.44907726     -1.54098306      0.78775270
H       0.11162461     -1.91708280     -1.71886532
H       0.83520157     -1.19159239      1.08619038
H       2.07647570      0.46599950     -0.98010901
H       2.83011839     -0.68176170     -0.07484580
