12
b3lypvtz=-223845.20335881
N      -0.38769980      1.05312275     -1.93271233
C       0.04477751      0.91211777     -0.75073394
C      -0.35321819     -0.17256502      0.21169023
N      -1.61900517     -0.62789356      0.08122577
N       0.40369387     -0.66286243      1.14013831
C       1.76111151     -0.39750312      1.14280926
O       2.46079228     -0.16731504      0.17841490
H      -1.01384804      0.29070034     -2.20069790
H       0.76353343      1.63126756     -0.36963809
H      -1.93806146     -1.31396447      0.74542545
H      -2.30909872     -0.08021403     -0.40208994
H       2.18712278     -0.46479075      2.15596829
