12
b3lypvtz=-200502.7981682
N       2.72305904     -0.25281889      0.41560434
N       1.88908155     -0.94250861     -0.19814136
C       0.56961167     -0.43138240     -0.15320339
C       0.07314693      0.67174510      0.44097182
C      -1.38837431      0.69391540      0.14636840
C      -1.52698392     -0.55658068     -0.67564988
N      -0.42122489     -1.18317197     -0.83917002
H       3.62853690     -0.72795449      0.30597727
H       0.62373276      1.39615181      1.01635807
H      -2.01088734      0.66321036      1.04824966
H      -1.70379423      1.58614169     -0.40702954
H      -2.45600415     -0.91674732     -1.10033536
