14
b3lypvtz=-229599.09425705
N       3.41984287     -0.74697850     -0.21520323
C       2.48980219     -0.10250364     -0.01164279
C       1.30842443      0.71254504      0.27562666
N       0.09340769      0.07456259     -0.21264017
C      -1.10639641      0.85289397      0.06702666
C      -2.33572212      0.10976030     -0.39770209
F      -2.47367863     -1.06799816      0.34557561
H       1.30085291      0.92412668      1.35694526
H       1.43090784      1.67458246     -0.22963972
H      -0.00026310     -0.84915592      0.19375308
H      -1.22154720      1.10218533      1.13393806
H      -1.05183818      1.79850539     -0.48152457
H      -2.24798113     -0.17496924     -1.44691332
H      -3.23614616      0.70640670     -0.24466244
