14
b3lypvtz=-180331.52239506
C      -1.07074696      0.98891270      0.27416298
C      -1.99696917     -0.16847062     -0.03568995
C      -1.15948346     -1.10204121      0.41787998
C      -0.07834215     -0.10964209      0.82299642
C       1.24987440     -0.21477929      0.12717391
C       2.50236574      0.19582926      0.72945919
N       2.37745372     -1.04494105      0.79608043
H      -1.42197767      1.70432714      1.02082096
H      -0.69621571      1.54218692     -0.58976266
H      -2.98952956     -0.20495398     -0.46488163
H      -1.20560012     -2.18064862      0.48835820
H       0.07728561     -0.03989693      1.90229858
H       1.19895723     -0.32120691     -0.95337074
H       3.21292811      0.95532470      1.02866720
