14
b3lypvtz=-226950.15737789986
C      -1.22512703     -0.89987218     -0.68892725
C      -0.35247791     -0.40582082      0.45953540
C       0.84886656      0.36857498     -0.03686125
C       0.96719668      1.69837551     -0.05564997
N       2.00882499     -0.31858447     -0.53921355
O       1.92405480     -1.53020195     -0.54269839
O      -1.18038044      0.40114676      1.29698506
H      -1.63585398     -0.05154125     -1.23717955
H      -0.64510841     -1.51831175     -1.37191800
H      -2.05015840     -1.49078953     -0.29262340
H       0.01870224     -1.27524392      1.01053492
H       0.17354153      2.33994117      0.29831206
H       1.87767730      2.14115700     -0.43607696
H      -0.72975792      0.54117043      2.13578090
