13
b3lypvtz=-192871.93457872
O       2.82359147     -0.73202455      0.36517401
C       2.08966037      0.22805513      0.23935362
C       0.64966233      0.15187042      0.07099040
C      -0.18956414      1.20835935     -0.07052108
C      -1.55509685      0.73241263     -0.21421730
C      -1.55549833     -0.61476893     -0.16070280
C      -0.15616540     -1.11399528      0.02559680
H       2.50019672      1.25861963      0.24869684
H       0.10768418      2.24826469     -0.07613505
H      -2.41849657      1.36818841     -0.34247324
H      -2.41924183     -1.25800138     -0.23839707
H       0.16378934     -1.77298680     -0.78831239
H      -0.04062128     -1.70409330      0.94094725
