16
b3lypvtz=-204424.4995489
C      -1.13487567      1.13124686      0.17885086
C       0.25808176      1.44393771     -0.44328436
C       0.61508214     -0.02550874     -0.24100809
C      -0.57719658     -0.21429063      0.72615551
N      -1.42018815     -1.38261886      0.63691992
C       1.83418964     -0.79682559     -0.44420870
O       0.73176659     -0.89759845     -1.36568879
H      -1.53105444      1.83349578      0.91002199
H      -1.89065741      0.95268954     -0.58559211
H       0.27686821      1.79205284     -1.47445922
H       0.86198503      2.11123105      0.17270704
H      -0.24634411     -0.09455913      1.75982376
H      -1.46932443     -1.70177776     -0.32477563
H      -1.04604689     -2.14910144      1.18251997
H       2.72312784     -0.31618843     -0.84153052
H       2.01458645     -1.68618475      0.15354835
