16
b3lypvtz=-181132.61166336
C      -2.72707011     -0.28468645      1.04291497
C      -2.12747356      0.14308301     -0.30537489
C      -0.67107380      0.06765388     -0.33613013
C       0.53054169     -0.01393208     -0.32966217
C       1.96008635     -0.07850711     -0.35843153
C       2.66218157     -0.57795109      0.67203194
N       2.53820716      0.36013760     -1.55784637
H      -3.81474407     -0.20908065      1.01448777
H      -2.46040247     -1.31512201      1.27638341
H      -2.35926530      0.34937048      1.84930290
H      -2.43795989      1.16636066     -0.53685359
H      -2.53441807     -0.48400523     -1.10437661
H       2.15836326     -0.96817944      1.54088439
H       3.74314887     -0.61699893      0.64838375
H       2.01974666      1.08593723     -2.02706166
H       3.52013171      0.58050164     -1.48865217
