13
b3lypvtz=-190411.04328163
C       2.61561395      0.31098196      0.39998342
C       1.57710561      0.17503274     -0.18722987
C       0.31672298     -0.00805319     -0.88547819
N      -0.35525220     -1.33832214     -0.72973529
C      -1.45432602     -0.75941311      0.09853740
C      -0.91933886      0.62594448     -0.19623438
N      -1.36165669      1.77316883      0.03589523
H       3.53388408      0.43410793      0.91813277
H       0.42688562      0.27552141     -1.93617999
H       0.21959513     -2.00882698     -0.23686801
H      -1.41511385     -1.00531104      1.16394060
H      -2.45510620     -0.97556471     -0.27801231
H      -0.72891355      2.50083381     -0.29945139
