13
b3lypvtz=-239483.84137988
O       1.30488149     -2.17570318     -0.69754160
C       0.59822420     -1.29132338     -0.30688880
C       1.08204593      0.03236871      0.25170791
C       0.25421357      1.23012175     -0.24426725
O      -1.10150522      0.86345996     -0.53173458
C      -1.50645342     -0.29009622      0.12296808
O      -0.75416116     -1.43366778     -0.31374934
H       2.13366613      0.14680664      0.00187523
H       1.01556686     -0.04426875      1.34063640
H       0.26619500      2.03555191      0.49551127
H       0.66077812      1.61747176     -1.17735161
H      -2.53721470     -0.48842656     -0.15398946
H      -1.41613681     -0.20249486      1.21282376
