20
b3lypvtz=-182674.18244216
C      -3.38919286      0.20927150      0.14122754
C      -2.03233497     -0.10387249     -0.41067029
C      -0.98031708     -0.48671816      0.30581352
C       0.37397670     -0.81816787     -0.24499131
C       1.51914753      0.02652567      0.34174790
C       1.42724970      1.49194489     -0.07037001
N       2.79281135     -0.52337579     -0.14357215
H      -3.68925134      1.23262104     -0.10166018
H      -4.15168350     -0.44793568     -0.28680584
H      -3.41611504      0.09657279      1.22576160
H      -1.92050061     -0.00930984     -1.48839315
H      -1.09399364     -0.58152003      1.38454049
H       0.38295917     -0.71460135     -1.33268411
H       0.59605076     -1.87092177     -0.02951534
H       1.43795206     -0.02330672      1.43906578
H       0.48349332      1.93228408      0.25057571
H       2.23810730      2.07292013      0.37529536
H       1.50391529      1.58278547     -1.15553567
H       3.57104009      0.01424006      0.22118663
H       2.91718775     -1.47475294      0.18450252
