13
b3lypvtz=-213709.11541736
C      -2.47650559      1.47157232      0.33089589
C      -1.85957469      0.46575730      0.54526954
C      -1.08342443     -0.74986954      0.81574294
N       0.36008570     -0.57618256      0.77222079
C       1.02560337     -0.54973015     -0.42408886
N       2.19658530     -0.08556272     -0.64146334
O       2.71319959      0.48337939      0.56180488
H      -3.01995366      2.36276666      0.13780515
H      -1.35620776     -1.13942197      1.79854155
H      -1.35657904     -1.52385163      0.09489364
H       0.76343906      0.01668942      1.48208675
H       0.53187559     -1.00616377     -1.27348582
H       3.56135656      0.83031725      0.27357691
