12
b3lypvtz=-221403.72594355
N       3.24203612     -0.62389342     -0.00000096
C       2.28007198      0.19756678      0.00001262
N       0.92582189     -0.15491408     -0.00000797
C       0.09448660      0.80790037     -0.00000352
N      -1.26721968      0.65993863     -0.00002471
N      -1.88171137     -0.54675096     -0.00001924
N      -3.11862560     -0.42873262     -0.00003742
H       2.87412038     -1.57770204     -0.00002468
H       2.51343817      1.26969489      0.00003693
H       0.38397165      1.86380579      0.00000629
H      -1.87398371      1.47402528     -0.00003191
H      -3.49026242     -1.38140361     -0.00002142
