13
b3lypvtz=-216162.22872824
C       2.48060245     -0.31227879      0.00000135
O       1.48731552      0.70223475      0.00000676
C       0.20785044      0.26421025      0.00000645
C      -0.29106442     -1.00449945      0.00001282
O      -1.66249118     -0.95136461      0.00000656
C      -2.01036142      0.35867578     -0.00000255
C      -0.91411073      1.15330783      0.00000283
H       2.39805145     -0.94088800     -0.89195335
H       2.39805332     -0.94089607      0.89195052
H       3.44235454      0.19371323      0.00000274
H       0.14759843     -1.98354143      0.00000386
H      -3.06514999      0.56778094     -0.00000361
H      -0.88145141      2.22873357     -0.00000838
