13
b3lypvtz=-234634.28525165
N      -1.61441852      1.11136162      2.24563177
N      -0.66076863      1.75174832      1.43383076
C       0.02249529      0.96687398      0.69939474
N      -0.14544259     -0.41629327      0.65402496
N       0.74491316     -1.23034896     -0.04555874
C       0.99710933     -0.92572627     -1.24834365
O       1.85208683     -1.65733350     -1.98935130
H      -2.19352259      0.46932204      1.70462065
H      -2.20863400      1.83014041      2.63380265
H       0.79047047      1.38708968      0.06128978
H      -0.34588180     -0.81853497      1.56070149
H       0.57429319     -0.09663584     -1.80859561
H       2.18719986     -2.37166324     -1.42774749
