14
b3lypvtz=-201248.06219196
C      -1.34277286      1.53277492     -0.78125248
C      -0.76231423      0.43988332     -0.30290947
C      -1.18606830     -0.97709078      0.06722604
C       0.29732778     -1.24516025      0.46669456
N       0.55549368      0.14678443      0.07133582
N       1.64309922      0.89363843      0.05764655
N       2.66653329      0.28994416      0.46863192
H      -2.39916000      1.52863858     -1.00394682
H      -0.78126042      2.43831229     -0.95654631
H      -1.89512847     -1.03685409      0.89012085
H      -1.54615579     -1.57430796     -0.76768375
H       0.83795176     -1.97204217     -0.13860041
H       0.48772203     -1.43597548      1.52230149
H       3.42463232      0.97145460      0.40688200
