17
b3lypvtz=-215265.40567961
C      -0.59942735     -1.12496331      0.53191167
C       0.12175073      0.15997507      0.05174710
C      -1.24589191      0.55192359     -0.58255996
N      -1.90121908     -0.45886113      0.28037279
C       1.30233483     -0.01101301     -0.89094876
O       2.41193869     -0.58459259     -0.22535574
N       0.57561447      0.96468166      1.18676614
H      -0.43138547     -1.41824150      1.57006009
H      -0.38504112     -1.98034062     -0.11587866
H      -1.28535815      0.33105664     -1.65616918
H      -1.58517797      1.57758735     -0.41880970
H      -2.60405758     -1.02891404     -0.17178556
H       1.56211031      0.96843646     -1.32408496
H       1.03856553     -0.67251205     -1.71721017
H       2.42730638     -0.16925336      0.64891977
H      -0.11706247      0.96461582      1.92607414
H       0.71500019      1.93041500      0.90695100
