14
b3lypvtz=-203721.74860175
C       1.95599375      0.32005640      0.35436602
C       0.49935730      0.18570803      0.06989473
C      -0.35725811      1.14179426     -0.29947232
N      -1.65722090      0.63234695     -0.47663866
C      -1.70829791     -0.72186590     -0.22264954
O      -2.68893017     -1.42793444     -0.29315458
C      -0.27304487     -1.10823391      0.15817525
H       2.19461289      0.01670107      1.37824972
H       2.55451072     -0.31288235     -0.30776802
H       2.29118725      1.34971691      0.22462189
H      -0.16723738      2.19101391     -0.46417996
H      -2.46512956      1.16307398     -0.75244076
H      -0.26843884     -1.55044180      1.15800168
H       0.08989583     -1.87905310     -0.52690544
