14
b3lypvtz=-224577.97708258
C      -2.07163277     -1.04230474      0.44149982
C      -1.38757203      0.09470493     -0.31388518
N      -0.03388028     -0.23074971     -0.72957500
N       0.98891634      0.19707817     -0.05092348
N       2.10812474     -0.24127522     -0.45923412
C       3.14899600      0.29645616      0.32576390
O       4.30461764      0.02598929      0.14008727
H      -1.52823084     -1.27993544      1.35596481
H      -2.12736685     -1.94525810     -0.16850476
H      -3.08945205     -0.75488589      0.70885256
H      -1.31151509      0.98505530      0.30756026
H      -1.95873440      0.36042628     -1.20564800
H       0.15291411     -0.89867621     -1.47417097
H       2.80481547      0.98357516      1.12211291
