18
b3lypvtz=-205210.62407795
C       1.84866670     -0.66830625     -0.97149436
C       0.99135953     -0.23264579     -0.04182215
N       1.17889037     -0.34812023      1.33057455
C      -0.26920086      0.53191135     -0.41229623
C      -0.17717654      2.01426135     -0.06965706
O      -1.40587970      0.01822180      0.28964834
C      -1.85378737     -1.24089190     -0.18034466
H       1.65611009     -0.49494075     -2.01950657
H       2.76943815     -1.17467972     -0.71143877
H       0.31942231     -0.39597437      1.85748224
H       1.85746701     -1.03242088      1.62394860
H      -0.42980392      0.41436613     -1.48947798
H      -1.10230933      2.51641536     -0.35231294
H       0.65405173      2.47264397     -0.60476610
H      -0.01649244      2.15235939      0.99876905
H      -2.14644658     -1.18774377     -1.23552166
H      -2.72421503     -1.51109572      0.41502229
H      -1.08925012     -2.01746797     -0.07269058
