19
b3lypvtz=-192729.93924375
C       2.14321786      1.46493898     -0.06020191
N       2.06126949      0.24089548     -0.34898401
C       1.38075756     -0.64298364      0.58620469
C       0.28701342     -1.44811416     -0.12148477
C      -0.88174703     -0.60733938     -0.63006096
N      -1.58904202      0.05561703      0.46025971
C      -2.69763141      0.88723049      0.01469375
H       1.72469452      1.89907273      0.85612885
H       2.65277888      2.14221695     -0.74313866
H       2.13034864     -1.34131055      0.96879024
H       0.95699557     -0.09451908      1.43641264
H       0.73187734     -1.97962046     -0.96533779
H      -0.08619929     -2.20969191      0.57123543
H      -1.54743819     -1.24529112     -1.23540366
H      -0.50406152      0.16684789     -1.30333349
H      -1.92826168     -0.64066574      1.11400308
H      -3.43316362      0.35728409     -0.61160504
H      -3.21981500      1.29933624      0.87871868
H      -2.31337753      1.72549220     -0.57015378
