19
b3lypvtz=-192740.02180243
C       2.89420333     -0.46614937     -0.12879664
C       1.52893754      0.14201749     -0.22274552
N       0.69385314      0.04738002      0.71823877
C      -0.65145834      0.60492256      0.60454106
C      -0.91309438      1.60103581     -0.52750211
C      -1.65175770     -0.56928420      0.57564575
N      -1.62072941     -1.29213018     -0.69863890
H       3.03649990     -1.20281734     -0.92451481
H       3.03014438     -0.94963622      0.83656119
H       3.66624748      0.29649567     -0.26485415
H       1.31041598      0.66799419     -1.15868090
H      -0.82700439      1.11979041      1.55530337
H      -1.91806921      2.01584695     -0.42556487
H      -0.20748894      2.43268583     -0.49590657
H      -0.84198966      1.13099903     -1.50877816
H      -1.36839250     -1.25710617      1.37204687
H      -2.64709671     -0.17754891      0.82051062
H      -2.30452966     -0.92848348     -1.34884939
H      -1.82918084     -2.27185608     -0.56610461
