15
b3lypvtz=-237837.23559295
N      -2.05646260      0.79891559      0.03779667
C      -1.71844992     -0.45885113     -0.38711058
N      -0.71740654     -1.17433584     -0.04711432
C       0.21724307     -0.66685765      0.95154079
C       1.35924285      0.12155267      0.31287891
O       1.87333435     -0.51943950     -0.81785694
O       0.84835934      1.41889592     -0.01353925
H      -1.29341009      1.41126014      0.28919769
H      -2.81645427      1.24771789     -0.44382062
H      -2.43714239     -0.90202270     -1.07604856
H      -0.25858046     -0.04096739      1.71479098
H       0.65578406     -1.52980170      1.45529182
H       2.19394169      0.23254033      1.01094958
H       1.12902584     -0.97707642     -1.23807025
H       1.48070006      1.83023080     -0.61267693
