17
b3lypvtz=-240988.27311714
C      -2.45886032     -0.50417205     -0.26652969
O      -1.19497496     -0.52095609      0.36944742
C      -0.22340556      0.36172610     -0.19738055
C      -0.45175828      1.81387414      0.19475394
C       1.12437973     -0.17090539      0.29510097
O       1.26023459     -1.54905564      0.02517081
O       2.12574702      0.52461915     -0.39044830
H      -3.05966674     -1.28443471      0.19733229
H      -2.97183864      0.45376363     -0.13781395
H      -2.36726366     -0.71281701     -1.33868998
H      -0.22803291      0.25169815     -1.28900839
H      -1.39703126      2.18909332     -0.19725507
H      -0.46619911      1.91506293      1.28137179
H       0.34948167      2.43481923     -0.20363565
H       1.20876309     -0.00191474      1.38010943
H       0.41088468     -1.95319931      0.24658624
H       2.97522166      0.15488327     -0.12882331
