16
b3lypvtz=-202060.77884686
C      -0.69788935      1.68231070     -0.11540865
C      -0.29581729      0.23304388     -0.02222523
C      -1.34792173     -0.76013493      0.09119038
N      -2.61915558     -0.60721695      0.06204422
C       1.01930390     -0.14426459     -0.00226534
N       1.48280621     -1.44047740     -0.19010139
N       2.07249777      0.73180522      0.19998428
H      -0.99381108      2.10505450      0.85000767
H      -1.55257105      1.80069081     -0.78630805
H       0.09552422      2.30884400     -0.52494410
H      -1.02043983     -1.78875847      0.26183749
H      -2.86993142      0.37090558     -0.08782940
H       0.77841357     -2.14056836     -0.34644342
H       2.18907270     -1.73350150      0.46963805
H       2.88306684      0.56707613     -0.37812617
H       1.83334010      1.70386938      0.28925066
