11
b3lypvtz=-233888.14161022
C       0.08215987     -0.75646710      0.14942214
N       0.88004512      0.08168311     -0.37389310
N       2.24291943     -0.40409217     -0.34800379
N       3.04349544      0.37765608     -0.84416267
C      -1.39586923     -0.48457862      0.24343436
O      -2.12734566     -1.31356468      0.75241777
N      -1.79663375      0.70165214     -0.26515733
H       0.41350696     -1.70966331      0.55645493
H       2.55543341      1.23176999     -1.17971418
H      -1.12617573      1.33224675     -0.66976932
H      -2.77153585      0.94335781     -0.23306518
