21
b3lypvtz=-172602.6464505
C      -2.49433481     -0.41812997      0.00020459
C      -1.68106481      0.84229279     -0.00007242
C      -0.35883348      1.01122969     -0.00017795
C       0.77364521     -0.01356941     -0.00004875
C       0.72697722     -0.89686365      1.26331107
C       0.72703575     -0.89681890     -1.26344497
C       2.10901241      0.75355752      0.00006970
H      -1.89630616     -1.32493019      0.00031846
H      -3.14940017     -0.44881801     -0.87537311
H      -3.14929818     -0.44850942      0.87586719
H      -2.27887861      1.74988335     -0.00019700
H      -0.02028905      2.04349338     -0.00039999
H      -0.18324314     -1.49289715      1.31363090
H       1.57717306     -1.58334311      1.27776781
H       0.77264140     -0.28467824      2.16550395
H       0.77278131     -0.28458688     -2.16560650
H      -0.18325201     -1.49277965     -1.31380217
H       1.57719738     -1.58334117     -1.27788826
H       2.19524113      1.39053759     -0.88276699
H       2.19509654      1.39045570      0.88298257
H       2.95422001      0.06277272      0.00010386
