16
b3lypvtz=-204396.48736283
N       1.81896418     -0.82446514     -1.28973552
C       1.42062058     -0.51048044      0.09140086
C      -0.08850771     -0.45312203      0.19188734
C      -0.75293019      0.23419476      1.41295422
C      -2.05275899      0.40525303      0.59857690
C      -0.84942328      0.82290283     -0.27126832
O      -0.30096427      1.55739660      0.89947141
H       2.81163343     -1.02248018     -1.33045464
H       1.66793799     -0.01834026     -1.88573938
H       1.77810022     -1.32377366      0.72850392
H       1.84529403      0.42086279      0.47821354
H      -0.54159527     -1.39371323     -0.12452393
H      -0.62198620      0.04101747      2.47560693
H      -2.60339769     -0.49169914      0.31639069
H      -2.69287729      1.22262490      0.92055692
H      -0.83820954      1.33372169     -1.23184093
