17
b3lypvtz=-217682.28018033
C      -2.21764985     -0.47726574     -0.59750305
C      -1.10375180      0.04243830     -0.08393121
C      -1.04980348      1.44013470      0.47006575
C       0.15562721     -0.79993076     -0.03953098
O       0.68160143     -0.91214144      1.29407985
C       1.32759979     -0.28040139     -0.87932530
O       1.91160928      0.90247347     -0.36225843
H      -3.13527734      0.09420059     -0.65826428
H      -2.24755960     -1.48852559     -0.98452477
H      -2.02736720      1.91793573      0.41640892
H      -0.32309520      2.04634649     -0.07180345
H      -0.72543425      1.43297817      1.51294501
H      -0.09067583     -1.79664359     -0.42378651
H      -0.02338730     -1.20810705      1.87776162
H       0.98415090     -0.05481643     -1.88881481
H       2.07333098     -1.08233003     -0.94336536
H       2.09358026      0.73484657      0.56980798
