16
b3lypvtz=-204445.3456458
C       2.41068996     -0.66970814      0.00017254
C       1.16221390      0.18126341     -0.00017555
O       1.21433439      1.39197071     -0.00032416
C      -0.17010929     -0.53992182     -0.00005797
C      -1.21815995     -0.08104495      1.05254551
N      -2.26200680     -0.09276671      0.00007381
C      -1.21834172     -0.08131816     -1.05258364
H       2.41722021     -1.32317868      0.87664246
H       2.41754183     -1.32353217     -0.87602799
H       3.29783626     -0.04143876      0.00021341
H      -0.04125651     -1.62051774      0.00008114
H      -0.97406044      0.91285230      1.43661527
H      -1.40597970     -0.76277438      1.88329093
H      -2.87202908      0.71528812      0.00002562
H      -0.97431243      0.91247044     -1.43698075
H      -1.40631162     -0.76327949     -1.88310463
