12
b3lypvtz=-202926.01365215
C      -1.48071827     -0.21819231      0.19389553
C      -0.56397930      0.52002540     -0.72685675
N      -0.45025993     -0.93103972     -0.58174211
C       0.76926677     -1.16666755      0.16998941
O       1.10340237     -2.24432723      0.58416347
C       1.45060073      0.14240897      0.33497197
C       0.66936092      1.11105839     -0.15109021
H      -1.32107981     -0.10672240      1.26007583
H      -2.50071034     -0.41454693     -0.11128430
H      -0.94678074      0.89083908     -1.66966258
H       2.39086739      0.24618748      0.85338819
H       0.88003021      2.17097682     -0.15584846
