18
b3lypvtz=-181902.66914491
C       3.26184385     -0.25059760      0.25997339
C       2.17266747      0.11544923     -0.40262768
C       0.85672607      0.44429125      0.23748255
N      -0.19895159     -0.40141543     -0.31600512
C      -1.54889341     -0.17443746     -0.03090892
C      -2.41940669     -1.18035687      0.12758364
C      -1.98610050      1.26428030      0.00582699
H       4.19107281     -0.46713051     -0.25025799
H       3.26500685     -0.34066535      1.34016052
H       2.19215232      0.18554077     -1.48595379
H       0.94347225      0.35570309      1.32989643
H       0.60845716      1.48526148      0.02024540
H       0.04217084     -1.38140489     -0.26551797
H      -3.47544664     -0.98816431      0.23799216
H      -2.10049271     -2.21516138      0.11608970
H      -3.06959973      1.32443496      0.07621941
H      -1.56630367      1.79479646      0.86378369
H      -1.66578668      1.79465026     -0.89427242
