14
b3lypvtz=-226988.15638352
C       1.92396591      1.13140015     -0.39739434
N       0.91699503      0.86044335      0.31011420
C       0.51411122     -0.53017268      0.46308941
C      -1.00947607     -0.60819294      0.32251599
O      -1.66285692      0.32125586      1.16343390
C      -1.46248592     -0.43564014     -1.12713365
O      -0.85801968     -0.85084242     -2.08109537
H       2.52297624      0.37072446     -0.90914857
H       2.22708678      2.16889317     -0.51752883
H       0.77466331     -0.84183248      1.47701997
H       0.99591081     -1.20067391     -0.25560943
H      -1.34267509     -1.60769822      0.62540397
H      -1.11385827      1.11868305      1.15749820
H      -2.42613735      0.10385275     -1.22926546
