16
b3lypvtz=-227757.5617886
N      -3.24076865      0.22145132     -0.03893074
C      -1.94081589     -0.31690420     -0.45461958
C      -0.88953445     -0.08406708      0.63630302
C       0.44090090     -0.70282192      0.32325170
C       1.54034965     -0.01619903      0.01195841
O       2.77000539     -0.54482871     -0.26611008
O       1.58383369      1.33359238     -0.07422331
H      -3.94656167      0.02591723     -0.73896796
H      -3.18974468      1.23114607      0.04197373
H      -2.06194738     -1.39202314     -0.61272774
H      -1.56590742      0.10097446     -1.39937058
H      -0.76470768      0.99087990      0.78618527
H      -1.28672005     -0.48609637      1.57291681
H       0.51698204     -1.78417933      0.32883414
H       2.73988868     -1.49921508     -0.14280390
H       2.50301552      1.59418649     -0.20295820
