18
b3lypvtz=-181854.49541203
C       2.56246727     -0.44158671     -0.27937647
C       1.29527154      0.40684205     -0.28488946
N       0.10756383     -0.46062854     -0.14797336
C      -1.00470896     -0.00928961      0.78750081
C      -1.40961798      1.11710060     -0.20389766
C      -1.09985416     -0.16502032     -1.02585430
C      -1.92814548     -0.96948674      0.00251889
H       2.54897092     -1.15694431     -1.10258963
H       3.45247699      0.18425445     -0.37941065
H       2.64100234     -1.00786113      0.64946728
H       1.34203016      1.13382860      0.53241679
H       1.24977759      0.98460396     -1.21375144
H      -0.85197529      0.05114480      1.86450002
H      -2.44447864      1.46220826     -0.17912326
H      -0.72089221      1.95139244     -0.31187507
H      -1.06031160     -0.28992778     -2.10738093
H      -2.99605335     -0.76492631      0.04107395
H      -1.68352295     -2.02570371      0.08034454
