14
b3lypvtz=-203709.70013747
C      -2.42217755     -0.63496805      0.00219039
C      -1.09183991      0.01849483     -0.00269303
C      -0.66123088      1.30012197      0.00523653
C       0.77675782      1.27447942      0.01278345
C       1.11852441     -0.04088288      0.00159232
N       2.32335644     -0.72355193     -0.08424342
O       0.00956339     -0.82373475     -0.00835566
H      -2.55982256     -1.26726908      0.88363371
H      -2.56691862     -1.26576155     -0.87896008
H      -3.20198569      0.12530222      0.00638565
H      -1.28971980      2.17493276      0.01148486
H       1.44900943      2.11463813      0.02365775
H       3.11351618     -0.16049612      0.19046692
H       2.31605734     -1.60325397      0.41308561
