15
b3lypvtz=-191218.17175131
N      -2.76492062      0.26995008      0.20215026
C      -1.77836728     -0.43681712     -0.17267901
C      -0.34691537     -0.10977232     -0.08639651
C       0.23689455      1.09831527     -0.05666961
C       1.73568443      0.92746246     -0.09868720
C       1.89517973     -0.56985027      0.24365768
N       0.59650612     -1.15521507     -0.15052749
H      -2.44337826      1.14660290      0.61892811
H      -2.00084975     -1.41147902     -0.61403791
H      -0.27525779      2.04203641     -0.15760222
H       2.27895691      1.57040123      0.59520080
H       2.11849351      1.14585742     -1.10263766
H       2.06183727     -0.69019352      1.32047286
H       2.71727823     -1.04822566     -0.28678760
H       0.34190030     -1.99147779      0.35662449
