16
b3lypvtz=-181125.24073001
C      -2.58188747     -0.66574804      0.00828172
C      -1.54646050     -0.01388764     -0.50636469
C      -0.75119933      1.03909011      0.20744437
C       0.73564117      0.72625012      0.36429449
C       1.18029481     -0.65376647      0.94658706
C       1.82699264     -0.74486706     -0.40480836
N       1.45162005      0.37130248     -0.91066471
H      -3.12559026     -1.40785715     -0.56181776
H      -2.93105646     -0.47422203      1.01695733
H      -1.23147744     -0.23459868     -1.52123865
H      -0.82304452      1.97943040     -0.35022994
H      -1.17652906      1.22219225      1.19820924
H       1.23136706      1.57163682      0.84552440
H       1.84659485     -0.62740073      1.81038955
H       0.37473651     -1.36476315      1.13220590
H       2.44725396     -1.49434623     -0.89244494
