17
b3lypvtz=-217678.01264528
C      -0.02927918      2.15468666      0.12897742
C      -0.00968307      0.68655977     -0.24985738
C       1.07111432     -0.26980342      0.32483853
O       2.18843509     -0.59920253     -0.48025857
C       0.01230134     -1.38114327      0.40733254
C      -1.07229655     -0.28019892      0.33205079
O      -2.26996358     -0.51375182     -0.37632479
H      -0.93075115      2.64442152     -0.24470054
H      -0.01023527      2.28017454      1.21434894
H       0.83027673      2.68916748     -0.28336949
H       0.00302787      0.56482463     -1.33804160
H       1.39293275      0.05399677      1.32096303
H       2.83323193      0.11289171     -0.42708895
H       0.03363267     -1.96888295     -0.51285615
H       0.02194377     -2.05317377      1.26331036
H      -1.38521965      0.03774828      1.32755994
H      -2.04456001     -0.82334168     -1.25966208
