10
b3lypvtz=-223058.71119706
C       2.33287380     -0.49618567     -0.00004049
C       1.05894496     -0.11632147     -0.00003256
N       0.61663050      1.22491865      0.00002446
N      -0.63731420      1.25023422     -0.00001497
C      -1.12882162     -0.09697183      0.00001553
N      -2.33998889     -0.41486210      0.00000905
O      -0.03028281     -0.94008638     -0.00002258
H       2.61413185     -1.53739539     -0.00002702
H       3.09436109      0.26733599     -0.00001493
H      -2.46925267     -1.42419501     -0.00001148
