13
b3lypvtz=-192795.01483136
C       1.22869377      0.50276938     -0.69392930
C       0.51288866      1.40727503     -0.02172314
C      -0.64076543      0.62053036      0.55948435
C      -1.04964250     -0.45867584     -0.50053621
C       0.48052293     -0.79638469     -0.49351551
C      -0.08630226     -0.78722699      0.96739185
O      -1.32604061     -1.45434365      0.54482899
H       2.13705974      0.64163819     -1.25919145
H       0.69465782      2.46424896      0.09534267
H      -1.40910815      1.08685908      1.16811286
H      -1.74358687     -0.38524777     -1.33830669
H       0.82122468     -1.73165086     -0.92644353
H       0.38039823     -1.10979117      1.89848513
