12
b3lypvtz=-226251.06715786
C      -1.32584523      1.23912250      0.16253867
C      -0.44716438      0.22448518      0.10842578
C      -0.91524330     -1.07738305      0.65026140
O      -0.28687310     -2.10689934      0.69649971
N       0.82949929      0.37803567     -0.42335716
C       1.86814169     -0.52533990     -0.56879611
O       2.91939827     -0.19090921     -1.06463320
H      -1.09292424      2.23004399     -0.20229825
H      -2.30736777      1.08195912      0.58202850
H      -1.95084244     -1.02291326      1.03160933
H       1.06500065      1.29893718     -0.77072804
H       1.64442055     -1.52913887     -0.20165062
