18
b3lypvtz=-205212.47485439
N      -2.38360415     -0.07175088      0.05284786
C      -0.96522025     -0.05871985     -0.32674773
C      -0.33725666      1.29508689      0.05090005
C       1.17299987      1.14748418      0.30792233
O       1.72473672      0.08799655     -0.46059775
C       1.26052000     -1.19305109     -0.03647917
C      -0.21592221     -1.17735860      0.39512359
H      -2.83235681     -0.91154208     -0.29746144
H      -2.86686228      0.70982756     -0.37756804
H      -0.82354422     -0.20581495     -1.40587745
H      -0.82987982      1.66649490      0.95303840
H      -0.52054884      2.02044886     -0.74472024
H       1.36719716      0.97583619      1.37484095
H       1.71518201      2.04671251      0.01881046
H       1.40737560     -1.84960307     -0.89503948
H       1.89208816     -1.56372704      0.78118523
H      -0.66864290     -2.14850341      0.18086252
H      -0.31409139     -1.01778669      1.47129588
