17
b3lypvtz=-194361.65515331
C       3.09872777     -0.36760268     -0.13899405
C       1.79498641     -0.45155982      0.09092348
O       0.97483109      0.63695730      0.05686164
C      -0.34621544      0.41854351      0.49054445
C      -1.38682174      1.29585360     -0.11858599
C      -1.34914377     -0.18089539     -0.45368180
C      -2.42244751     -1.11935078      0.04170853
H       3.70356145     -1.26075818     -0.11961040
H       3.57560976      0.57819259     -0.35412844
H       1.30225838     -1.39451570      0.30672034
H      -0.42365346      0.17752411      1.54667816
H      -1.04847474      1.99000927     -0.87469276
H      -2.17980988      1.66381258      0.51871925
H      -0.95283618     -0.40576620     -1.43671066
H      -3.30682944     -1.07885939     -0.59784001
H      -2.07053345     -2.15319013      0.06000525
H      -2.73865625     -0.85826171      1.05364901
