14
b3lypvtz=-229607.67982912
N      -2.89581716      0.34630410      0.22026301
C      -1.91749982     -0.14159492     -0.13867508
C      -0.66161737     -0.75326767     -0.55604295
C       0.48811504     -0.52862504      0.45285150
N       1.62226348     -1.34426740      0.02548652
C       0.81454582      0.95252048      0.61323284
F       1.29254651      1.45047110     -0.60482255
H      -0.37841123     -0.34650835     -1.52916394
H      -0.80781073     -1.82598793     -0.67994694
H       0.15849995     -0.89401329      1.42864125
H       2.08881545     -0.90518616     -0.76100422
H       2.30631527     -1.42450016      0.76800004
H      -0.06068542      1.54172859      0.89187559
H       1.60249322      1.09340265      1.35532994
