17
b3lypvtz=-194386.45790452
C      -3.44911547      0.24506739     -0.20106889
C      -2.25686566     -0.64657611      0.17158537
C      -0.94428402     -0.08980635     -0.29239215
C       0.07538999      0.23655626      0.49501294
C       1.38454911      0.79460838      0.00931623
C       2.54483284     -0.13433844      0.30092413
O       3.37709487     -0.46030231     -0.50396723
H      -3.50373310      0.39860059     -1.28065481
H      -4.38925101     -0.20681731      0.11867738
H      -3.36608596      1.22562863      0.27005806
H      -2.22960217     -0.79879840      1.25309294
H      -2.40348931     -1.63416711     -0.27901245
H      -0.84662931      0.06612180     -1.36496789
H      -0.01638675      0.08464067      1.56777767
H       1.60253878      1.73478493      0.53451707
H       1.36838437      1.00267751     -1.06011208
H       2.58989780     -0.51289816      1.34458472
