15
b3lypvtz=-214536.73530304
C      -3.28377236     -0.26119850      0.38188417
N      -2.12587997      0.23816564     -0.33357143
C      -0.98961097     -0.22000298     -0.03551015
C       0.25600425      0.23669523     -0.74524869
N       1.24719876      0.76227437      0.18356736
C       2.43005941      0.14565866      0.44362286
O       2.79865873     -0.90119362     -0.04436514
H      -3.80795552      0.57843508      0.84242908
H      -3.97574794     -0.71170805     -0.33234926
H      -3.03977939     -1.00036636      1.15590080
H      -0.84245498     -0.96759471      0.75727382
H       0.73003312     -0.60738894     -1.24847483
H      -0.01279030      0.98702059     -1.48872600
H       1.05375665      1.63017364      0.65535974
H       3.04154350      0.71441396      1.16613667
