17
b3lypvtz=-194368.17891122
C      -1.72895581      0.39026266      0.31138937
C      -0.47215580      1.24419587      0.10705510
C       0.74547762      0.51829266      0.64832297
C       1.84934968      0.06444467     -0.26378000
C       0.82223595     -0.92823370      0.21436430
C      -0.32844620     -1.33101282     -0.68060005
O      -1.59457759     -0.96593963     -0.12780864
H      -2.57816303      0.83253363     -0.21865767
H      -1.98148418      0.36470585      1.37668841
H      -0.34425505      1.46546968     -0.95464853
H      -0.61576946      2.20424264      0.60566948
H       1.01422362      0.74046876      1.67312047
H       1.81621613      0.37418556     -1.30115536
H       2.84711794     -0.00825164      0.14592549
H       1.13560072     -1.65903555      0.94812534
H      -0.20927507     -0.89425780     -1.67982406
H      -0.37713946     -2.41207084     -0.80418661
