16
b3lypvtz=-204450.0596413
O       3.37061472      0.63016179      0.97687972
C       2.34204104      0.32369715      0.16087658
N       1.14753381      0.28606728      0.55153950
C       0.11343243     -0.05191439     -0.39442618
C      -0.87300802     -1.17870688      0.00940481
C      -2.02611749     -0.33225670     -0.58687451
C      -1.10181301      0.90760644     -0.48602918
H       2.99269032      0.79728418      1.85324201
H       2.69483998      0.12128768     -0.85246086
H       0.51954731     -0.24539040     -1.39658453
H      -0.69363370     -2.17411536     -0.39605596
H      -0.93872340     -1.24161607      1.09541016
H      -2.96476989     -0.30458494     -0.03644898
H      -2.23959271     -0.60132870     -1.62147117
H      -1.23195659      1.43185330      0.46056991
H      -1.11098480      1.63205562     -1.29997129
