19
b3lypvtz=-171826.93172631
C      -2.77512902     -0.02888002      0.35182179
C      -1.72058702     -0.08066496     -0.45267906
C      -0.48923776     -0.89962884     -0.20572695
C       0.82167482     -0.13478510     -0.00595895
C       2.01478638     -1.05651053      0.14384986
C       0.82380319      1.13768881      0.79710424
C       1.05319556      1.18444975     -0.69596288
H      -3.64447853      0.56931522      0.11154944
H      -2.80903236     -0.58892330      1.27939070
H      -1.74143501      0.49403397     -1.37388189
H      -0.34829810     -1.57836934     -1.05629507
H      -0.65240215     -1.53425194      0.67108034
H       1.88701104     -1.72992743      0.99573140
H       2.93450558     -0.49166859      0.30229500
H       2.15103353     -1.67262129     -0.74905665
H      -0.12180625      1.51082222      1.16588850
H       1.66611439      1.32648148      1.44929337
H       2.05264251      1.39648484     -1.05200314
H       0.26972619      1.60619707     -1.30951104
