13
b3lypvtz=-237082.82952173
N      -2.39248840     -0.92958214      0.01498422
C      -1.37198607     -0.17168456      0.00142315
O      -1.48474289      1.18592947     -0.06886751
C      -0.03485796     -0.76611956      0.05602009
C       1.14741798     -0.13391359      0.02516773
N       2.39159321     -0.73408706     -0.12949787
O       1.23751341      1.23614239      0.10813436
H      -3.24266970     -0.36910080     -0.02430329
H      -0.60532143      1.58842282     -0.03158562
H      -0.03419353     -1.84415197      0.11147247
H       3.06644373     -0.47002401      0.57783305
H       2.34945329     -1.73603656     -0.24077797
H       1.98309336      1.52595856     -0.43382180
