13
b3lypvtz=-192806.90435377
C      -2.42080253     -1.51079173     -0.20393915
C      -1.68575680     -0.61089333      0.09085427
C      -0.80098327      0.51316466      0.43787731
O      -1.16769099      1.70984571     -0.25187841
C       0.60951051      0.15722888      0.23528636
C       1.76572567     -0.11659982      0.06055066
C       3.16633247     -0.45061095     -0.14860512
H      -3.07112598     -2.30895924     -0.46230395
H      -0.95431319      0.75458717      1.49343368
H      -1.02839933      1.55960519     -1.19398355
H       3.27129098     -1.43914666     -0.59984362
H       3.71387408     -0.45092616      0.79585556
H       3.64422236      0.27365428     -0.81131703
