12
b3lypvtz=-223851.00255664
C       2.62287777     -0.66718313     -0.33508038
N       1.71627577     -0.37769783      0.48833396
C       0.57762101      0.35413186      0.10905068
O       0.62887319      1.55253490     -0.08789544
N      -0.55859286     -0.45985951      0.07314603
C      -1.67708280      0.17048642     -0.01703660
N      -2.84761621     -0.47429216     -0.11724258
H       2.57243636     -0.42010515     -1.39898511
H       3.51158943     -1.18907935      0.01357930
H      -1.73606084      1.25999929     -0.01714324
H      -3.71618915      0.02598300     -0.14419948
H      -2.85990466     -1.48075935     -0.10558114
