16
b3lypvtz=-204449.35543762
C       2.46787086     -1.09900378      0.11049049
N       1.93090709     -0.07650720     -0.40859558
C       0.65721511      0.35387201     -0.01115765
O       0.57036432      1.71696745      0.03753756
C      -0.40316558     -0.43005526      0.21563769
C      -1.78834578      0.05922415      0.51126898
C      -2.84140347     -0.50235781     -0.45307389
H       2.00239674     -1.67745793      0.91267125
H       3.43661050     -1.42702126     -0.25626038
H       1.39875982      2.06163305     -0.31746019
H      -0.25341281     -1.49898774      0.13087926
H      -1.80227890      1.14898371      0.48506096
H      -2.06240144     -0.22532215      1.53400682
H      -2.85389299     -1.59436476     -0.43181247
H      -3.84095916     -0.15308471     -0.18781457
H      -2.63580131     -0.19334875     -1.47908228
