15
b3lypvtz=-214521.1709973
C      -3.10079806     -0.27588564      0.00890648
N      -1.68221253     -0.52712784     -0.09581193
C      -0.88597065      0.45300833      0.04987983
C       0.56330592      0.35335926      0.00671470
O       1.29175920      1.54618724      0.05756646
C       1.24609643     -0.80609772      0.01996582
N       2.61215984     -0.90343015     -0.06702855
H      -3.34958756      0.78213768      0.17628990
H      -3.60215337     -0.61259052     -0.90238928
H      -3.51972397     -0.86305162      0.83077448
H      -1.25861266      1.47450263      0.22846620
H       1.04858829      2.10250240     -0.68926529
H       0.68623411     -1.72913781      0.06673054
H       3.12068673     -0.04823938      0.09324701
H       3.04075826     -1.72513685      0.32206764
