12
b3lypvtz=-221398.91005306
N       2.87214634     -0.17090683      0.25829017
C       1.97773934      0.61798081     -0.15322001
N       0.55446783      0.45309006     -0.12440637
N       0.21265276     -0.75225232     -0.16731028
N      -1.09534751     -0.99772763     -0.07952155
C      -2.19250533     -0.12702943      0.06880310
N      -2.22079008      1.12959924      0.16485603
H       2.45720731     -1.03725081      0.60864622
H       2.25008176      1.59518153     -0.54280395
H      -1.29281938     -1.98202979     -0.15943018
H      -3.11735137     -0.70450604      0.09546013
H      -1.28427466      1.52384621      0.12013568
