19
b3lypvtz=-195127.36134611
C       2.59734754      0.75022309     -0.39481321
C       1.82119836     -0.55835242     -0.23407546
C       0.52103939     -0.38776957      0.51860995
C      -0.61244793     -1.38304939      0.37056902
C      -0.72897542      0.01398233     -0.18527955
O      -1.55177414      0.94128036      0.45683180
C      -2.91229695      0.83430116      0.07692670
H       2.00833950      1.49286082     -0.93607494
H       3.52789379      0.59393395     -0.94313187
H       2.85196413      1.17754425      0.57723305
H       1.61347433     -0.98576853     -1.21970954
H       2.44317482     -1.29320631      0.28645709
H       0.61736547      0.03864591      1.51093522
H      -1.19283988     -1.61051376      1.25408075
H      -0.48863157     -2.20652822     -0.32112348
H      -0.69003065      0.12826106     -1.26751044
H      -3.46096359      1.59172914      0.63397031
H      -3.31980373     -0.15453939      0.31443877
H      -3.04403347      1.01696550     -0.99648679
