19
b3lypvtz=-192735.62318692
C      -2.90175663     -0.65910906     -0.24400803
C      -1.98835539      0.01456675      0.44412110
C      -0.90722050      0.86862395     -0.14750082
C       0.51103649      0.48606264      0.30162187
N       1.46397489      1.46626055     -0.23572063
C       0.90955076     -0.90405876     -0.19641297
N       2.30420578     -1.20553461      0.15424701
H      -3.66447822     -1.24725818      0.24951252
H      -2.92249423     -0.64301187     -1.32761735
H      -2.01170929     -0.03460296      1.53025032
H      -1.08051738      1.90893354      0.15495409
H      -0.95719432      0.84798880     -1.23884975
H       0.53018900      0.45652420      1.40144872
H       2.36865572      1.31774046      0.19740217
H       1.17898316      2.40651730      0.01404024
H       0.72043093     -0.95208005     -1.27699794
H       0.26707184     -1.64543053      0.27969820
H       2.45978215     -2.20511476      0.16641632
H       2.92718724     -0.82864841     -0.54984105
