10
b3lypvtz=-223082.29471619
N      -2.27645463     -0.13122640     -0.00003925
C      -1.01352765     -0.04900877      0.00015109
N      -0.32098299      1.19375371     -0.00001354
C       0.94023953      1.17053226     -0.00000679
O       1.72201652      0.04812157     -0.00002256
C       1.01034453     -1.12863058     -0.00001196
N      -0.24419721     -1.23633824     -0.00001877
H      -2.66976068      0.80859870     -0.00003782
H       1.54638071      2.06852735      0.00001891
H       1.67747387     -1.98171860      0.00000369
