17
b3lypvtz=-191899.28772803
C       1.01508970      0.89618808     -0.63935834
C      -0.10006899      1.57685580      0.29172046
C      -0.91864241      0.24834956      0.05977993
C       0.40420458     -0.41985972     -0.05590804
N      -0.30282077     -1.73489440     -0.26491725
C      -1.36778968     -1.13612236      0.67132974
N      -1.56942199      0.43869480     -1.24543780
H       2.05985446      1.10244843     -0.41290524
H       0.79213048      1.08264640     -1.68332815
H       0.25726675      1.71046295      1.31090619
H      -0.55276101      2.49457191     -0.07776954
H       0.83356433     -0.45484153      0.95459005
H       0.18464888     -2.53727303      0.12311005
H      -2.38257770     -1.47293308      0.45885444
H      -1.12474934     -1.27239764      1.72880231
H      -2.46334139      0.89490218     -1.10235503
H      -1.74318589     -0.45919835     -1.68271379
