12
b3lypvtz=-200489.49998743
C      -1.01310379      1.95764796     -0.17124934
C      -0.54288645      0.85329645     -0.08206932
C       0.05625186     -0.43717077      0.02720372
C      -0.72824685     -1.65110207     -0.24984083
N      -1.94695519     -1.72627247     -0.59791586
N       1.30001736     -0.60952638      0.36301245
N       2.05318544      0.43725072      0.67030866
H      -1.44840836      2.92328976     -0.25035245
H      -0.15488093     -2.57056931     -0.13140862
H      -2.36420757     -0.79496770     -0.67054834
H       1.74937180      1.37002810      0.41202376
H       3.03986269      0.24819571      0.68083617
