15
b3lypvtz=-191207.41918822
C      -2.83300648     -0.58699651      0.03130524
N      -1.81126557      0.16945353      0.03949589
C      -0.55508626     -0.38826950     -0.14309360
C       0.56884730      0.35855467     -0.10189911
C       0.59480048      1.83713346      0.12914868
N       1.81380096     -0.20917044     -0.38998555
C       2.24849822     -1.20138033      0.26233293
H      -2.77537282     -1.67253124     -0.10961447
H      -3.81783013     -0.15240643      0.17166759
H      -0.48186508     -1.45134637     -0.37629293
H       1.17311912      2.07063328      1.02711218
H       1.09200106      2.33214779     -0.70727149
H      -0.41341418      2.22426933      0.24220417
H       1.71642346     -1.63425101      1.11524782
H       3.19642892     -1.65016020     -0.02378436
