14
b3lypvtz=-203647.6100579558
C      -1.09022651      0.66379007      0.22507091
C      -1.40463696     -0.64077445     -0.56569440
N       0.00595439     -1.05803053     -0.35622349
C       0.22645820     -0.01006731      0.69645713
C       1.61869729      0.47556395      0.35848217
O       1.97367409     -0.32977863     -0.85277943
C       0.95953986     -1.06740787     -1.29828126
H      -1.79612567      0.95007776      1.00201550
H      -0.90810121      1.50947422     -0.43807632
H      -1.67741213     -0.54525048     -1.61322582
H      -2.10309288     -1.30429500     -0.05585833
H       0.15286671     -0.42311762      1.70205410
H       1.68922588      1.52281333      0.06671442
H       2.35317895      0.25700255      1.12934482
