11
b3lypvtz=-236274.63910521
C       2.40061666      0.20744649     -0.20133181
N       1.24220171      0.67597389     -0.00700648
O       0.28777985     -0.36282708     -0.02828841
C      -0.98728075      0.09237186      0.17797517
N      -1.39947064      1.26601198      0.37593453
C      -1.98810607     -1.03366940      0.15004067
O      -1.71158949     -2.18789991     -0.02995926
H       2.59445291     -0.84968506     -0.35839602
H       3.21159194      0.92368153     -0.20450527
H      -0.63370115      1.93859539      0.37295424
H      -3.01649497     -0.66999971      0.31612202
