13
b3lypvtz=-211309.02109728
C      -3.33542122      0.05513952     -0.00004392
C      -2.07241364      0.48091372     -0.00003607
N      -1.01554341     -0.42890530      0.00011223
N       0.11204085      0.12917031      0.00013611
N       1.11432536     -0.74696672      0.00012598
N       2.42251440     -0.41432063      0.00000552
C       2.77655370      0.81080647      0.00006784
H      -3.56147660     -1.00222981     -0.00009602
H      -4.15710724      0.75576117      0.00001475
H      -1.81431751      1.53648727     -0.00013255
H       0.89623982     -1.73592017     -0.00001287
H       3.84178864      0.99824203      0.00003752
H       2.08532784      1.64694615      0.00015848
