12
b3lypvtz=-223820.16404907338
C      -1.48955854     -0.66072184     -0.09086946
C      -0.69467201      0.53065931      0.35059948
N       0.56614923      0.69244324      0.31675478
C       1.40724443     -0.28601598     -0.16815376
N       2.68817101     -0.04787687     -0.16884309
N       3.80698544      0.14724521     -0.17483555
O      -1.47145086      1.53286708      0.83993032
H      -1.32155908     -0.86326714     -1.15083609
H      -2.55065294     -0.49034270      0.06863489
H      -1.18884915     -1.55068920      0.46616245
H       1.11971126     -1.25265118     -0.55812953
H      -0.87151878      2.24835009      1.09506562
