15
b3lypvtz=-201556.83941707748
C      -0.43488552     -0.18828450      0.00573463
C       0.87372990      0.29254882     -0.09271386
C       2.01979051     -0.44104895      0.09473943
N       3.29979422      0.14483695     -0.02676544
N       4.39508433     -0.38265072      0.11063133
C      -1.60648705      0.53833493     -0.18032167
N      -2.87679738     -0.18837854     -0.02677146
H      -3.00943761     -0.59794381      0.91235683
H      -3.66044448      0.44079314     -0.18573874
H      -2.98714376     -0.97469345     -0.68791915
H      -0.54709966     -1.24374009      0.25479704
H       1.00393041      1.34534385     -0.34060578
H       2.05138743     -1.49227624      0.34274606
H       3.20133836      1.16962736     -0.26820284
H      -1.72275967      1.57753125     -0.42605128
