14
b3lypvtz=-203660.33071666
C      -1.16302118      1.67751563      0.23299222
C      -0.65312448      0.44820477      0.15817612
C       0.41038302      0.08184801     -0.86365245
C       1.58574903     -0.52229660     -0.21168270
C       2.52758916     -1.03079944      0.33113799
O      -0.11932381     -0.77532181     -1.87421988
N      -1.10787516     -0.66117940      0.88159778
H      -0.83536679      2.45394283     -0.44135087
H      -1.93645859      1.93061486      0.94661864
H       0.72510177      0.98951139     -1.37764762
H       3.37384919     -1.47352183      0.79481516
H      -0.64859660     -1.44737473     -1.42751885
H      -1.79627079     -0.44217535      1.58619535
H      -0.36263479     -1.22896829      1.26453913
