14
b3lypvtz=-180372.96972212
C       2.84772809      0.17847242     -0.20725532
C       1.79978737     -0.32295976      0.08825806
C       0.51857606     -0.92594599      0.42772402
C      -0.68066084     -0.33971632     -0.36263173
C      -1.97052503     -1.12893380     -0.08645098
C      -0.87237445      1.07962096     -0.05442094
N      -1.05232398      2.18656346      0.20221730
H       3.77469577      0.62889968     -0.46138808
H       0.32869580     -0.81647557      1.49837475
H       0.55554577     -1.99881385      0.22242639
H      -0.44391952     -0.40376266     -1.42735120
H      -1.83544907     -2.17137832     -0.37555932
H      -2.80523357     -0.71942270     -0.65292112
H      -2.22875339     -1.09363155      0.97206618
