17
b3lypvtz=-191980.52762711
C      -2.61952628      0.21821626     -0.17212032
C      -1.56661687     -0.58203876     -0.27273860
C      -0.44697387     -0.67810526      0.73013630
C       0.92743240     -0.54643341      0.08456418
N       1.62282469     -1.53226182     -0.34416936
N       1.45354810      0.71884208     -0.02322151
C       0.70344536      1.96026292     -0.04269426
H      -2.74624752      0.89287949      0.66676936
H      -3.39769798      0.22447044     -0.92386075
H      -1.47709807     -1.24061751     -1.13140422
H      -0.58799235      0.05903457      1.52191449
H      -0.47417983     -1.66328805      1.20254919
H       1.16972296     -2.41618687     -0.13453339
H       2.32060071      0.71720348     -0.53944164
H       1.40683932      2.78856044      0.03219391
H       0.03452398      2.02558746      0.81411183
H       0.10427927      2.09633153     -0.94944322
