15
b3lypvtz=-193582.87963244
C       1.55228032     -0.94349523      0.10014512
C       0.51442370     -0.20404545     -0.72814573
C       0.54975707      1.34122776     -0.73287412
O       0.29588048      1.78179684      0.59974818
C      -0.83631702      1.41936398     -0.23054014
C      -0.93192941     -0.07395021     -0.20479971
C      -1.91039075     -0.92850688      0.03974253
H       2.53960576     -0.87973673     -0.36227836
H       1.61108805     -0.52092616      1.10264533
H       1.29584259     -2.00030998      0.19115293
H       0.49025529     -0.58253353     -1.75405358
H       1.09290725      2.00830030     -1.38770327
H      -1.60190857      2.16879047     -0.36950882
H      -2.89875881     -0.58748739      0.32173913
H      -1.76253596     -1.99848778     -0.03746951
