11
b3lypvtz=-259603.39743313
C      -2.11584603      0.34988889     -0.20195031
O      -2.59930261     -0.67437177      0.19918140
N      -0.77296588      0.66445367     -0.29116795
C       0.34314252     -0.08947313      0.04603288
N       1.49171729      0.45219172     -0.14088887
O       2.49232770     -0.48184850      0.26604775
O       0.11928994     -1.30585089      0.53263581
H      -2.71904723      1.20153314     -0.56404984
H      -0.54114903      1.57632812     -0.65399203
H       3.30831476     -0.00432885      0.09570114
H       0.99351856     -1.68852240      0.71245002
