16
b3lypvtz=-204458.92090338
C       3.16357715     -0.28873325      0.00000297
C       1.67491146     -0.40586568      0.00000593
C       0.82980160      0.62401613     -0.00000112
C      -0.63871947      0.51632103      0.00000095
N      -1.46509108      1.48481947     -0.00000058
O      -1.07468024     -0.76218213      0.00000743
C      -2.49196768     -0.95408912      0.00000949
H       3.59184639     -0.78486475      0.87551741
H       3.49159931      0.75078643     -0.00000667
H       3.59184470     -0.78488044     -0.87550340
H       1.26219334     -1.40842157      0.00001485
H       1.21039010      1.63983214     -0.00000963
H      -0.97324208      2.37308544     -0.00000466
H      -2.94272387     -0.50466989      0.88442571
H      -2.64005712     -2.03092130      0.00001722
H      -2.94272451     -0.50468252     -0.88441290
