19
b3lypvtz=-192735.60372785
C       2.22467326     -1.29215020     -0.16665507
N       1.82663224      0.08500239      0.08201929
C       0.44813577      0.44028122     -0.24031354
C       0.30660782      1.96049837     -0.19682308
C      -0.60767359     -0.26678407      0.66030978
C      -2.02752591     -0.04426718      0.21726932
N      -2.77914654     -0.85516723     -0.40272388
H       1.67053946     -2.05403277      0.40085997
H       3.28246967     -1.40668103      0.07168354
H       2.10240777     -1.51711734     -1.22823267
H       2.04895101      0.35818049      1.03199251
H       0.27644207      0.10423248     -1.26800368
H      -0.68099892      2.28481328     -0.52546062
H       0.45901051      2.33388148      0.81981569
H       1.05571930      2.42073731     -0.83959838
H      -0.40987766     -1.34059895      0.67148098
H      -0.48360211      0.10611236      1.68322242
H      -2.45190282      0.93810299      0.43814758
H      -2.29943034     -1.74609460     -0.55879415
