12
b3lypvtz=-247095.9229331
C      -1.88976744     -0.54044716     -0.65684014
N      -0.44362458     -0.49130087     -0.55067308
C       0.08287287      0.40127701      0.16474869
O      -0.53182879      1.37172443      0.88629714
N       1.48828215      0.57443519      0.36489852
N       2.17448989     -0.24371749     -0.23592140
O       3.50753985      0.00988140      0.02456888
H      -2.30721509      0.37890954     -1.08853898
H      -2.17371001     -1.36385389     -1.30869806
H      -2.37301371     -0.70923920      0.31467189
H      -1.48644402      1.29064673      0.77844083
H       3.95261889     -0.67821570     -0.48705429
