15
b3lypvtz=-216941.34342426
C      -0.34793038      1.27497996     -0.77637762
C      -0.00085076     -0.01421023     -0.03655087
C      -1.20731163     -0.93695546      0.11434448
C       0.88394522      0.14734462      1.21920623
O       1.98781009     -0.55259018      0.54770090
C       1.24266964     -0.72154892     -0.59228739
O       1.56843834     -1.25513268     -1.60301508
H       0.51859124      1.93026455     -0.87303804
H      -0.71164612      1.04890100     -1.77918757
H      -1.13138401      1.81990941     -0.24600150
H      -2.00685087     -0.43291620      0.66095065
H      -0.95058996     -1.85163510      0.65029607
H      -1.59245295     -1.21890544     -0.86609835
H       0.56929806     -0.40110826      2.10509338
H       1.17816409      1.16350290      1.47506471
