15
b3lypvtz=-193594.15307859
C       3.10378430     -0.39340642     -0.02837482
C       2.21648001      0.58831608      0.13213174
C       0.77379192      0.50089081     -0.09760942
C       0.02262152     -0.59047454      0.06536336
C      -1.43371798     -0.64559736     -0.18950640
C      -2.41695158      0.04624259      0.66463187
O      -2.08338450      0.54684690     -0.63111341
H       4.15370106     -0.23972904      0.18034224
H       2.81459397     -1.37344317     -0.38703584
H       2.57979261      1.56512876      0.43795023
H       0.27556068      1.41300385     -0.40975361
H       0.46897575     -1.51818637      0.40989733
H      -1.77919873     -1.54673215     -0.69273546
H      -3.42195819     -0.35223956      0.76412342
H      -2.05458684      0.64070062      1.49668777
