15
b3lypvtz=-191211.27535944
N      -2.63270694     -0.88114567      0.16411075
C      -1.69715186     -0.27557310     -0.11969162
C      -0.47163957      0.46048880     -0.48144516
N      -0.38888936      1.66177276      0.34137436
C       0.71428290     -0.51456609     -0.46939425
C       1.48667095     -0.81602199      0.78012606
C       2.12903682     -0.02948737     -0.33430618
H      -0.61080330      0.79627810     -1.51388891
H      -0.26682347      1.44068201      1.32142068
H       0.37610652      2.25170332      0.04270805
H       0.56355538     -1.34989195     -1.14260143
H       1.23461140     -0.27628142      1.68338686
H       1.80166137     -1.83560902      0.94930893
H       2.88815421     -0.50542180     -0.93875216
H       2.29929095      1.02431442     -0.15809297
