16
b3lypvtz=-227734.82618537
C      -1.31681254     -0.53772637     -0.82471065
C      -1.09411216     -0.04617896      0.62769491
C       0.28277357      0.47689529      0.13096714
N      -0.18711257      0.31656176     -1.26538655
C       1.46613278     -0.39247009      0.52574602
O       2.61798049     -0.13705994     -0.27470931
O      -1.99676446      0.92911927      1.10108853
H      -2.28203345     -0.27460351     -1.26320129
H      -1.16090694     -1.61468775     -0.94171568
H      -1.05854296     -0.81517416      1.39744473
H       0.48772636      1.52053143      0.39940044
H       0.48809752     -0.10738022     -1.89000510
H       1.23444953     -1.44739478      0.36460202
H       1.68351810     -0.25936571      1.59319076
H       2.90735814      0.76726318     -0.11558375
H      -2.07175143      1.62167058      0.43517776
