13
b3lypvtz=-216104.17487752
O       1.04576120      0.22195054      0.29147501
C       0.52012499      0.71922247     -0.91375086
C      -1.01034721      0.91790776     -0.94202463
O      -1.28228734      1.82378646      0.16231767
C      -0.62279319      2.82803767     -0.61047217
C       0.60931153      2.20245580     -1.26442793
C      -0.77564764      2.13054852     -1.91309557
H       1.95746258     -0.04759007      0.14868584
H       0.82291922      0.11362367     -1.77336436
H      -1.71203794      0.09511059     -1.01796720
H      -0.70860331      3.86386708     -0.32200989
H       1.46613751      2.77698321     -1.58490847
H      -1.13900040      2.40979631     -2.88895745
