14
b3lypvtz=-231945.70022806
C       1.77182567      0.03982047     -0.14205964
C       0.55584650     -0.78264085     -0.61886128
C      -0.37234667      0.40931949     -0.26205448
C       0.63583982      0.16834392      0.89391636
O       0.40267241     -1.29595027      0.76796478
C      -1.83326096      0.14508043     -0.02120143
F      -2.38309512      1.22359615      0.68384077
H       2.62550042     -0.55014068      0.18046373
H       2.04853068      0.92546455     -0.71331034
H       0.47887514     -1.50189409     -1.43106991
H      -0.21693471      1.32149272     -0.84018403
H       0.64686404      0.59144271      1.89462169
H      -2.38013890      0.06211222     -0.96331193
H      -1.98017832     -0.75604680      0.57124571
