14
b3lypvtz=-226982.70946323
C       3.01173277     -0.32838037      0.01460401
O       1.76957612      0.36893580      0.00793558
C       0.66855979     -0.40321083     -0.01857326
C      -0.57635307      0.10779847     -0.03125471
O      -0.76551436      1.46112736      0.01008185
C      -1.71886669     -0.79339894     -0.04573223
N      -2.95819396     -0.50257793      0.04320883
H       3.12239828     -0.94126689     -0.88387069
H       3.10117632     -0.96053217      0.90195783
H       3.79094568      0.42856771      0.03202224
H       0.80582993     -1.47793110     -0.00541801
H      -1.63275140      1.66626866     -0.35844794
H      -1.46309323     -1.84769866     -0.15790704
H      -3.11041318      0.49933691      0.18343752
