11
b3lypvtz=-212997.95983421
C       1.93680766     -0.80191439      0.00362554
C       0.63823844     -0.49807027     -0.00151942
N      -0.46429783     -1.33239136     -0.00989335
N      -1.64003060     -0.65986115      0.00318945
C      -1.40079692      0.61518612      0.00299450
C       0.04348838      0.89364005     -0.00052817
O       0.64263253      1.94737060     -0.00166944
H       2.65351817      0.00682391      0.00954260
H       2.30442282     -1.81877319      0.00247139
H      -0.48653443     -2.33429027      0.02507691
H      -2.20338723      1.33392795      0.00710501
