13
b3lypvtz=-216143.70658758
C       2.88770379     -0.72854972      0.13979505
C       1.86741837     -0.05704276     -0.38032587
C       0.60324743      0.17928697      0.33884474
O      -0.05744222      1.42692998      0.11894192
C      -0.68806376      0.25160101     -0.39388576
C      -1.93132277     -0.17187061      0.30826496
O      -2.78916552     -0.84440489     -0.20187121
H       2.84625498     -1.13907885      1.14156001
H       3.79849076     -0.89423069     -0.41858923
H       1.92633162      0.35706424     -1.38099187
H       0.57396649     -0.16010243      1.37142282
H      -0.68947982      0.13805149     -1.47312541
H      -2.00176934      0.18335726      1.35700983
