17
b3lypvtz=-217692.23195975
C      -2.38836601     -0.61991168     -0.19372412
C      -1.10430061     -0.12126323      0.44079598
C      -0.65338921      1.27485845     -0.00678205
O       0.76349599      1.19069672      0.02835908
C       1.06112825     -0.11895367     -0.41241646
C       2.39847171     -0.56764961      0.12031576
O       0.00794461     -0.95205649      0.06937253
H      -3.23165419      0.00679607      0.10599538
H      -2.31351189     -0.60537284     -1.28208355
H      -2.59830940     -1.64163132      0.12197530
H      -1.19406078     -0.15093310      1.53170476
H      -0.97019613      2.07354583      0.66087834
H      -1.00594476      1.49309626     -1.02380075
H       1.04480850     -0.14405876     -1.51348441
H       2.59755448     -1.59122782     -0.19562223
H       2.39500239     -0.52410491      1.20887279
H       3.18896106      0.07758909     -0.26336533
