20
b3lypvtz=-182676.94290654
C       3.04464155     -0.09866546      0.13858348
C       1.60916750     -0.40492410     -0.28757380
C       0.62233341      0.69310127      0.11386894
C      -0.83877363      0.42211931     -0.29280833
C      -1.72243538      1.65047925     -0.02426870
C      -1.39089848     -0.77250568      0.44576103
N      -1.83521097     -1.86039530     -0.02552362
H       3.72716535     -0.89309010     -0.16714064
H       3.12091660      0.00386339      1.22333518
H       3.40007161      0.83365086     -0.30620794
H       1.29582498     -1.35860466      0.14493855
H       1.57274405     -0.53877297     -1.37335291
H       0.93367459      1.64022252     -0.33762702
H       0.66602462      0.84751716      1.19804096
H      -0.86656551      0.19622627     -1.36452619
H      -2.75187934      1.47668746     -0.33994185
H      -1.73534945      1.89761166      1.03977399
H      -1.34337001      2.52053646     -0.56277220
H      -1.40798028     -0.66504908      1.53628158
H      -1.77506420     -1.86220124     -1.04720252
