18
b3lypvtz=-181898.82859868
C       2.85139667      0.24800495     -0.20945216
C       1.67394869     -0.48707005     -0.77596295
C       0.40253132     -0.21796106     -0.51677416
C      -0.90555278     -0.87644296     -0.91244975
C      -1.56027957     -0.17032976      0.32650003
C      -0.30914722      0.74525965      0.41899297
N      -2.84422714      0.49579277      0.25180408
H       2.54348999      1.03381786      0.48049398
H       3.52255436     -0.42960474      0.32619622
H       3.44554264      0.71306599     -1.00170410
H       1.89669975     -1.30656717     -1.45461911
H      -1.30912882     -0.47378562     -1.84729120
H      -0.93723677     -1.96608733     -0.95970768
H      -1.58561202     -0.85695669      1.17357646
H       0.11446137      0.92019657      1.40803179
H      -0.50103658      1.71685562     -0.04773570
H      -2.89654293      1.08583482     -0.57139233
H      -3.60186097     -0.17402286      0.18737510
