16
b3lypvtz=-202064.46210784
C       2.63505266     -0.19062153      0.00031871
N       1.24432650     -0.56488122     -0.00098240
C       0.22579083      0.33286801     -0.00023885
N       0.29630398      1.61511977      0.00015679
C      -1.14642508     -0.30037285      0.00006901
C      -2.32275320      0.63258572     -0.00032323
N      -1.19978999     -1.57130786      0.00066059
H       2.89910326      0.39833345     -0.88443077
H       2.89776328      0.39758859      0.88598664
H       3.24487456     -1.09141297      0.00035054
H       0.96655248     -1.53355158      0.00000874
H       1.25973110      1.94339605     -0.00001578
H      -2.28728650      1.28869812      0.86929208
H      -3.25577064      0.06981069      0.00080671
H      -2.28827327      1.28663602     -0.87155483
H      -2.16144798     -1.90723844      0.00087206
