15
b3lypvtz=-191188.86979482
N      -1.29503990      1.83197569      0.54107102
C      -0.96917240      0.63662612      0.32339107
C      -1.77546401     -0.65191812      0.31925821
N      -0.50692679     -1.42198211      0.08072313
C       0.25664549     -0.16183902     -0.00823754
C       1.65739921      0.04310661      0.48689511
C       1.35097463      0.16851856     -0.98270395
H      -0.49281161      2.46039125      0.46577314
H      -2.26261241     -0.90331491      1.26196793
H      -2.50819043     -0.70530413     -0.48911644
H      -0.52800936     -1.92057261     -0.80094425
H       2.17910845     -0.84273541      0.82231730
H       1.86571200      0.94297636      1.05147872
H       1.68231622     -0.62775724     -1.63683530
H       1.34607091      1.15192897     -1.43513815
