11
b3lypvtz=-210607.68665236
N      -1.98757790     -0.12951525     -0.22787137
C      -0.62170334     -0.12885502     -0.13763193
C       0.09179232      0.87487522      0.55082109
N       1.40387514      0.86687297      0.56963688
C       1.98711234     -0.13911098     -0.10180570
N       1.35935739     -1.10346700     -0.75449121
N       0.03195764     -1.10577656     -0.76960848
H      -2.51408238      0.35033433      0.48129269
H      -2.39510879     -0.98400822     -0.57310130
H      -0.42371742      1.67363868      1.07676219
H       3.06809500     -0.17498818     -0.11400287
