18
b3lypvtz=-205213.62743869
C       3.10438118     -0.11500838      0.18226946
C       1.73400069     -0.70120254      0.03572308
C       0.61526280     -0.00054195     -0.14795574
O       0.61423714      1.36565097     -0.21846577
C      -0.74994783     -0.60815657     -0.34479751
N      -1.74714067      0.17791208      0.38799262
C      -3.12996156     -0.13574388      0.04498307
H       3.59269438     -0.47306116      1.09290501
H       3.75238890     -0.39737666     -0.65317153
H       3.06456464      0.97209506      0.22188243
H       1.63714614     -1.77982841      0.06049070
H      -0.31253097      1.62946513     -0.08767824
H      -1.01980572     -0.54584597     -1.40494011
H      -0.73517310     -1.67087726     -0.07453238
H      -1.60317006      0.05709822      1.38422661
H      -3.30988863      0.11550097     -1.00147068
H      -3.80245970      0.46866858      0.65356807
H      -3.39323964     -1.19347119      0.18657992
