16
b3lypvtz=-258679.15909172
C       1.30370096     -1.19701353     -0.63001514
C       0.59242169     -0.00115715      0.03244579
C       1.28122742      1.31093270     -0.35573446
N       0.54196278     -0.08837995      1.49444010
C      -0.85132568      0.03055758     -0.47931163
F      -1.52869459     -1.08739038     -0.05083327
F      -1.53921825      1.10838044     -0.01257241
H       0.82252814     -2.13609385     -0.35657910
H       2.34144128     -1.23406670     -0.29569811
H       1.30736758     -1.12090340     -1.72025972
H       2.32146618      1.29284180     -0.02572636
H       0.78421869      2.15626060      0.11498979
H       1.28104502      1.45544689     -1.43743114
H       0.10061709     -0.95312205      1.78455754
H       1.48073187     -0.08473793      1.87482314
H      -0.90426816      0.04622095     -1.57058503
