16
b3lypvtz=-181136.59776669
C      -2.27204244      0.11846167      0.30792837
C      -0.81502476      0.11094836     -0.01700286
C       0.04162079     -1.12451715      0.21252676
C       1.44541721     -0.66129719     -0.14265340
N       1.95767217      0.41600205      0.72795624
C       1.35254762      0.75046280     -0.59494477
C      -0.08391453      1.12339653     -0.49074040
H      -2.73701037      1.06879023      0.04608567
H      -2.43669787     -0.05578298      1.37536115
H      -2.79918858     -0.67985469     -0.22361674
H      -0.28232609     -1.95442629     -0.42483275
H      -0.02156318     -1.47134986      1.24801692
H       2.15181823     -1.35599106     -0.57697807
H       2.97074713      0.44428038      0.64435439
H       1.99198407      1.16272979     -1.36424156
H      -0.46403940      2.10804740     -0.72731896
