16
b3lypvtz=-204463.44724217
C      -1.43359063     -0.27907679     -0.27920344
C      -0.44861525     -1.40213034      0.07752443
C       0.97781185     -0.92724362     -0.03421104
C       1.27383176      0.37659079     -0.13726443
N       0.33360649      1.39107346     -0.16491384
C      -0.99532419      1.05095487      0.33132782
O       2.53512910      0.89218646     -0.25845891
H      -1.47750733     -0.16096412     -1.36418261
H      -2.43987537     -0.52529188      0.06420835
H      -0.61963948     -2.25183818     -0.59017740
H      -0.66040804     -1.77282716      1.08784194
H       1.77941762     -1.65433521     -0.06168858
H       0.70315927      2.27994772      0.13618529
H      -1.68245679      1.84951897      0.04907279
H      -1.00729126      0.97106540      1.42754553
H       3.16175225      0.16236964     -0.28360590
