16
b3lypvtz=-204400.37823532702
C       2.09716790      0.05938228      0.12139245
O       0.87369075      0.69826977      0.43347678
C      -0.27064227     -0.14751919      0.34041981
C      -0.36721248     -1.34131821      1.22893114
C      -1.06307743     -0.30811505      1.58502750
C      -0.89723974     -0.06997699     -1.04461884
N      -1.34266851      1.26254431     -1.45669815
H       2.11531159     -0.32469302     -0.90494285
H       2.88506226      0.80305345      0.22985646
H       2.30214063     -0.77182270      0.80643700
H      -0.04973040     -2.34878789      1.43371251
H      -1.72723800      0.15793439      2.29141456
H      -1.74813656     -0.75201479     -1.08949295
H      -0.17464024     -0.42239314     -1.78682839
H      -2.06403274      1.59420289     -0.82503033
H      -0.56875477      1.91125391     -1.36305668
