17
b3lypvtz=-171086.79178805
C      -2.56067567      0.24970871      0.55360232
C      -1.66015733     -0.36223036     -0.52951129
C      -0.19622173     -0.19383980     -0.25309928
C       0.70661758     -1.15266668      0.02724558
C       2.05742945     -0.53618124      0.24568430
C       1.79571377      0.92880081      0.04539221
C       0.49643792      1.10676299     -0.23902186
H      -3.61460325      0.12249758      0.30062838
H      -2.38355776     -0.22494089      1.51979771
H      -2.37280835      1.31826010      0.67058408
H      -1.90051680      0.10181282     -1.49194818
H      -1.88621627     -1.42540267     -0.63400221
H       0.51180209     -2.21357192      0.08828709
H       2.80645760     -0.91689442     -0.45903877
H       2.45329530     -0.74796428      1.24621720
H       2.55332842      1.69442780      0.11946792
H       0.01409804      2.05427846     -0.43759622
