19
b3lypvtz=-171852.71085089
C       2.52657484     -0.42400786     -0.25861212
C       1.12193738      0.01438278      0.00126500
C       0.59604142      1.21834430     -0.21632696
C      -0.84600873      1.31052470      0.20294811
C      -1.25034161     -0.16863492      0.46608815
C      -2.08693597     -0.73562048     -0.68275749
C       0.10128386     -0.91788758      0.61301243
H       2.55379298     -1.26897548     -0.95339286
H       3.00893673     -0.76512489      0.66276244
H       3.12974452      0.38102293     -0.67854507
H       1.14269775      2.05997276     -0.62376689
H      -0.95277688      1.92576857      1.10356976
H      -1.48014612      1.77495726     -0.55813964
H      -1.83194826     -0.24646857      1.38593535
H      -2.33804643     -1.78413625     -0.50954688
H      -1.54063553     -0.67391402     -1.62734531
H      -3.02136534     -0.18326379     -0.80090974
H       0.34880960     -1.11340651      1.66307309
H       0.08419680     -1.89518193      0.11959765
