14
b3lypvtz=-227018.45427284
C       1.95030713     -0.78779371     -0.18344452
C       0.58947520     -0.48624340      0.41580098
N      -0.47917817     -1.39803278     -0.01896053
C      -1.67047264     -0.58630072      0.04358361
O      -1.27301471      0.79353256     -0.20285718
C       0.05565705      0.90591525      0.05297643
O       0.65551583      1.93991708     -0.00714878
H       2.66521893     -0.02642905      0.12403137
H       1.90598161     -0.78213678     -1.27461049
H       2.30814407     -1.76272387      0.14595529
H       0.65779522     -0.51928596      1.50985092
H      -0.30412881     -1.66972953     -0.98064898
H      -2.11680171     -0.61850487      1.03962956
H      -2.40683201     -0.86734421     -0.70441068
