12
b3lypvtz=-226198.00317462
C      -2.64889649     -0.62724177     -0.00001152
N      -1.73171681      0.24450195     -0.00000148
O      -0.47085764     -0.38153446      0.00004081
C       0.57047553      0.49990953      0.00004176
C       0.51020749      1.83301549     -0.00000771
C       1.88444569     -0.18725533      0.00005370
O       2.04267245     -1.38148960     -0.00007178
H      -3.66419239     -0.25402698     -0.00003399
H      -2.45052356     -1.69537823      0.00001866
H       1.43694698      2.38763228      0.00001288
H      -0.42068437      2.37468609     -0.00006530
H       2.73828512      0.51745904     -0.00004604
