17
b3lypvtz=-191960.58955524
C       2.32060186     -0.85171972     -0.35179875
C       1.28850255     -0.02690613     -0.12252549
N       1.38324461      1.33937550      0.04037465
C      -0.10434413     -0.56241653     -0.03274938
C      -0.93763869     -0.43844453      1.20415511
N      -1.20561839      0.39018124      0.04149468
C      -2.39954834      0.09113262     -0.73442688
H       3.33909942     -0.49216184     -0.40622205
H       2.15518784     -1.90971497     -0.48703054
H       0.53557592      1.81630307      0.29886178
H       2.24859589      1.72806425      0.36832352
H      -0.27477641     -1.46343620     -0.61312439
H      -1.62008712     -1.25511044      1.42023659
H      -0.54336192      0.07461551      2.07293598
H      -3.25318053      0.61049565     -0.29661828
H      -2.26506355      0.45053669     -1.75505527
H      -2.62943400     -0.98318717     -0.77086629
