14
b3lypvtz=-226995.80631386
C      -0.57913633      0.33562406      1.27177361
C      -0.43637790      0.01087953     -0.01326321
C      -1.50938932     -0.67156710     -0.82668823
O      -1.85715775      0.07781380     -1.98251684
N       0.69173755      0.33744481     -0.79258547
C       1.85589291      0.09351306     -0.37126247
O       2.96211967      0.43519966     -1.04743372
H       0.19055805      0.86638069      1.81594237
H      -1.49322367      0.10494285      1.79986665
H      -2.41507179     -0.78667922     -0.23343958
H      -1.15962749     -1.67449484     -1.11013818
H      -1.03041454      0.39060213     -2.36839302
H       2.09650753     -0.41751119      0.56024218
H       2.68358307      0.89785176     -1.85210410
