14
b3lypvtz=-201267.0055107048
C      -0.57114350     -0.94443255     -1.08297951
N       0.22394212     -0.18355511     -0.11745600
C       1.59422482     -0.49865613     -0.05198878
C       2.39622592      0.18628623      0.83618387
N       3.00174326      0.81273762      1.61343149
C      -0.37699853      0.72399686      0.60932574
N      -1.71013101      1.02032340      0.53273847
H       0.07570846     -1.64689769     -1.59464332
H      -1.35885913     -1.49859887     -0.57056197
H      -1.01549970     -0.27310696     -1.81924234
H       1.94548010     -1.26862624     -0.70903529
H       0.21891402      1.27736501      1.31795404
H      -2.34170169      0.56089164     -0.09368204
H      -2.08190516      1.73227281      1.12995565
