16
b3lypvtz=-204414.77542992
C      -2.07606175     -0.12679783      0.16296381
C      -0.64176730      0.11665330      0.57083203
C       0.19467568      1.00675925     -0.31142605
C       0.44069895     -0.48589978     -0.29319603
C       1.82388204     -0.18479418      0.28048553
N       1.47569358      1.28179876      0.37734526
O       0.20742891     -1.45069507     -1.26506181
H      -2.44402648     -1.08115173      0.54765266
H      -2.18483648     -0.14735525     -0.92175478
H      -2.72694724      0.65711899      0.55421450
H      -0.46329653      0.19156786      1.64073259
H      -0.23061102      1.66687574     -1.05467248
H       2.09168420     -0.64295685      1.23540158
H       2.60357309     -0.38328796     -0.45594049
H       2.09221313      1.81755783     -0.22239125
H      -0.16230279     -2.23539306     -0.84518507
