10
b3lypvtz=-225473.93510940485
C      -0.61984798     -0.60345819      0.29671064
C       0.58911514      0.26759294      0.02455562
C       1.69559078     -0.28362408     -0.45572625
O       2.64788016     -0.79642672     -0.85243186
C       0.54026027      1.67308666      0.19443926
N       0.46711302      2.81296769      0.36174873
O      -1.54460917     -0.45974834     -0.76969561
H      -1.05519146     -0.28639913      1.24790959
H      -0.29484301     -1.64352474      0.40317167
H      -2.42546773     -0.68046608     -0.45068178
