11
b3lypvtz=-212988.4996268875
C      -1.83111716      0.35979821      0.73828684
C      -0.67771413      1.02051155      0.73883720
C       0.65995983      0.49484613      0.35301595
O       1.65770448      1.18169205      0.52075572
C       0.72619539     -0.84368738     -0.22254220
N       1.91124701     -1.29863588     -0.54057521
N       2.95205290     -1.63477053     -0.79198686
H      -2.74778960      0.83917357      1.05486190
H      -1.91616415     -0.67537550      0.43452461
H      -0.63230709      2.05252241      1.06590296
H      -0.10206750     -1.49607463     -0.43548595
