17
b3lypvtz=-191963.11594603
C       0.25353699      1.91235078     -0.25200678
C       0.02647942      0.42724210     -0.00138771
C       1.31470017     -0.21824930      0.47194269
N       2.03996259     -1.09964027     -0.07227233
C      -0.75785260     -0.37474382     -1.07170325
C      -1.60127497     -0.94055394      0.08880184
N      -1.08969711      0.14678243      0.96164216
H       0.67551697      2.39602997      0.63201570
H       0.94408658      2.06748336     -1.08400087
H      -0.69596145      2.39628712     -0.47966208
H       1.63996928      0.15229093      1.45165107
H       1.66711468     -1.37738279     -0.98279220
H      -0.20187291     -1.08819870     -1.67715632
H      -1.32459456      0.27840723     -1.73210438
H      -2.68456133     -0.93248941     -0.03429555
H      -1.28512333     -1.94468355      0.38570404
H      -0.79573942     -0.13961014      1.88981496
