16
b3lypvtz=-202040.51303307
C      -2.21147149     -0.34153570     -0.91811152
N      -1.62289275     -0.56228298      0.39738509
C      -0.78168758      0.52578328      0.87045904
C       0.57081079      0.51165163      0.18228928
N       1.09063695      1.48421044     -0.44581499
C       1.35037321     -0.77198282      0.28011001
N       2.48611575     -0.97068461     -0.24077769
H      -2.85805917     -1.18135228     -1.16996335
H      -2.80103063      0.58531809     -0.98781081
H      -1.42581427     -0.29362677     -1.67340311
H      -2.34019216     -0.77217968      1.07694308
H      -1.23469371      1.52220203      0.73991789
H      -0.61438925      0.38240091      1.94241951
H       0.47654248      2.29878296     -0.44999985
H       0.87943284     -1.57336029      0.84640016
H       2.77275700     -0.12419321     -0.74492474
