16
b3lypvtz=-181156.82440507
C      -2.15729585     -1.29687575      0.23626387
C      -1.92275828      0.00138809      0.08971606
C      -0.89308335      0.60029176     -0.82337499
C       0.18436839      1.40973951     -0.08271856
C       1.07751763      0.56420629      0.84454158
C       1.86764560     -0.42916041      0.12194972
N       2.48109018     -1.20534112     -0.46604775
H      -2.91967069     -1.66251033      0.91163205
H      -1.59969357     -2.04091834     -0.32049076
H      -2.50895724      0.71002244      0.67057217
H      -0.42079672     -0.18404144     -1.41899556
H      -1.38848693      1.27516608     -1.52820812
H       0.81350756      1.92486858     -0.81020754
H      -0.28940236      2.18102851      0.52913670
H       1.76526600      1.20963636      1.39443653
H       0.46757765      0.03979177      1.58297660
