13
b3lypvtz=-239475.4210687
O       0.07445763      1.71331446     -1.48491711
C      -0.05367014      0.88181073     -0.62567036
C      -1.24208027     -0.03173832     -0.36775265
C      -0.69085642     -1.02075637      0.65846938
O       0.37051047     -0.30689649      1.33235442
C       1.01979408      0.50072293      0.41106347
O       2.02573224     -0.25466785     -0.25565149
H      -1.60090048     -0.47701715     -1.29382924
H      -2.04905040      0.57340298      0.05221627
H      -1.40640895     -1.31381544      1.42196893
H      -0.28808133     -1.91620291      0.18061521
H       1.44755966      1.35999248      0.93263040
H       2.39299390      0.29185097     -0.96139724
