19
b3lypvtz=-195140.35243002
C      -2.75649262      0.38383206     -0.15897889
C      -1.86869004     -0.52387510      0.22770312
C      -0.56791851     -0.81890094     -0.45807968
C       0.67470719     -0.56589130      0.42262523
C       1.92703737     -1.19354412     -0.19740481
C       0.87467244      0.92766121      0.70906377
O       1.10107518      1.71171390     -0.46168938
H      -3.68049004      0.54078883      0.38236875
H      -2.58945059      1.00300874     -1.03257913
H      -2.08023476     -1.11689917      1.11496244
H      -0.56125667     -1.87168596     -0.76090237
H      -0.48326444     -0.22336631     -1.36940852
H       0.50641495     -1.04051600      1.39691630
H       1.81054700     -2.27230804     -0.31089558
H       2.80946510     -1.01822944      0.42250409
H       2.12504102     -0.78668153     -1.19219038
H       1.69726850      1.05650321      1.42282802
H      -0.02494675      1.34124338      1.16399195
H       1.97933968      1.51527759     -0.79914791
