11
b3lypvtz=-241321.49934756
F      -2.43315813      0.47785772     -0.00005460
C      -1.61113830     -0.64369077      0.00000511
C      -0.18270375     -0.22565734      0.00002841
C       0.35423657      1.01301819     -0.00006016
O       1.71955497      0.87574474      0.00006477
C       1.92103036     -0.45976046      0.00011189
N       0.84187158     -1.16465447      0.00007365
H      -1.84321222     -1.23822685     -0.88662346
H      -1.84325971     -1.23817932      0.88665287
H      -0.04203967      2.00990154     -0.00010233
H       2.94206131     -0.80121798     -0.00006815
