15
b3lypvtz=-193588.64946282
C      -2.37237316      0.29169629     -0.00883514
C      -1.05144159      0.20466807     -0.01424630
C       0.05536452      0.93712008      0.74929102
C       1.07324257      0.15507364     -0.09667070
C      -0.06581134     -0.53798229     -0.84977917
C       0.89086920     -1.31333747      0.05599573
O       2.21051921      0.72318488     -0.64909819
H      -2.97792994     -0.28085642     -0.70005783
H      -2.89189657      0.94646101      0.67906061
H       0.07107667      1.99894183      0.50079327
H       0.10410917      0.81540737      1.83398156
H      -0.15402758     -0.78780045     -1.89735159
H       1.60588617     -1.91232154     -0.49375264
H       0.53593318     -1.75410583      0.98083027
H       2.96647948      0.51385084     -0.09016088
