17
b3lypvtz=-215273.07151733
C       2.17234374     -0.85273586     -0.04597885
N       0.73562119     -0.84279626     -0.31654750
C      -0.07449288     -0.13197888      0.66660382
C      -1.54925135     -0.42820157      0.48561097
N      -2.12989646     -1.00951894     -0.47437548
C       0.17284091      1.38553826      0.53674650
O      -0.00100270      1.82721743     -0.79248747
H       2.59529471      0.14045081     -0.19555639
H       2.66069267     -1.52490812     -0.75043924
H       2.42269970     -1.17777684      0.97373863
H       0.40409882     -1.79591109     -0.39643114
H       0.18374462     -0.41151465      1.70282652
H      -2.17251380     -0.07022258      1.30878816
H      -1.46383206     -1.27252956     -1.20378145
H       1.17987707      1.61970102      0.90276697
H      -0.53441692      1.92817051      1.16658164
H       0.29956474      1.10270434     -1.35888168
