11
b3lypvtz=-241305.22643303
N       2.21373708     -0.97191381     -0.00000788
C       0.96877255     -1.20340106     -0.00000881
C      -0.14685662     -0.22948231      0.00001817
C       0.06340083      1.23498606      0.00000852
O       1.15180714      1.76600127     -0.00005129
C      -1.39174575     -0.72494112      0.00003579
F      -2.48321487      0.03843726      0.00007377
H       2.39465828      0.03259995     -0.00000520
H       0.64812239     -2.24953336     -0.00000255
H      -0.85650607      1.84306198     -0.00002814
H      -1.63173296     -1.78141587      0.00002261
