13
b3lypvtz=-267986.31631785
N       2.94934802     -0.66281524     -0.00843362
C       2.28298174      0.41543910      0.07710070
N       0.91889140      0.61910343      0.07821423
C      -0.03492293     -0.42411871     -0.21833346
C      -1.38939201     -0.06139639      0.34822526
F      -1.82301934      1.11603517     -0.20981408
F      -2.29397383     -1.02592549      0.01978299
H       2.36142800     -1.48488034     -0.13767115
H       2.82949566      1.35024332      0.20075742
H       0.61308817      1.55928267     -0.11536159
H       0.28204096     -1.35343480      0.25608881
H      -0.15229639     -0.61626164     -1.29154223
H      -1.39155746      0.06783194      1.43163273
