13
b3lypvtz=-213752.4231845
C      -2.51273600     -0.36250271      0.05504980
N      -1.47245869      0.64010911     -0.11715105
C      -0.15528651      0.26575505     -0.02815845
N       0.20379718     -1.00030175     -0.01987526
O       1.61416912     -0.98488604      0.00874311
C       2.02598485      0.28716476      0.03325316
C       0.97913576      1.13892928      0.01268625
H      -3.48258556      0.11523156     -0.07072470
H      -2.40328456     -1.13418030     -0.70548377
H      -2.47476886     -0.85168321      1.03399205
H      -1.67226531      1.54468528      0.27493438
H       3.09206175      0.44067303      0.06076151
H       0.99451185      2.21419494      0.00969698
