16
b3lypvtz=-202068.36724362
C       1.57738973     -1.15717979     -0.69057527
C       1.20393874      0.03311647     -0.19994054
C       2.15029820      0.92194281      0.56208535
N      -0.05077846      0.61223792     -0.41824256
C      -1.13473000      0.07797777     -0.00095311
N      -2.35836461      0.60552026     -0.38740306
N      -1.24291438     -1.00225721      0.86142346
H       2.58388463     -1.52521692     -0.55013926
H       0.90425968     -1.75926874     -1.28666916
H       1.75602346      1.13792647      1.55844992
H       2.24975422      1.88047870      0.04846028
H       3.13575557      0.46971383      0.66333105
H      -3.06489175      0.61636766      0.33310239
H      -2.25576092      1.49464244     -0.85207936
H      -2.04830611     -1.59010065      0.71470723
H      -0.38514900     -1.52566301      0.95511562
