15
b3lypvtz=-191218.44851437
C       2.68545235     -0.20572541      0.20708668
C       1.45687259     -0.56964401     -0.14715821
C       0.28055215      0.33261138     -0.10363012
N       0.30734476      1.60775902     -0.15857276
C      -1.07477511     -0.31614053      0.00308144
C      -2.26057511      0.60103027      0.13186981
N      -1.12271155     -1.58805417     -0.02909068
H       3.51253891     -0.90060992      0.15523523
H       2.91283993      0.78801573      0.57632469
H       1.25197601     -1.58651833     -0.45083317
H       1.26270091      1.95031454     -0.26536035
H      -2.31711329      1.27559255     -0.72258500
H      -3.18155352      0.02340681      0.20373020
H      -2.15978237      1.23628715      1.01249461
H      -2.08445665     -1.92004607      0.04377462
