14
b3lypvtz=-203688.59649185
C      -1.21455577      1.66285130     -0.06832364
C      -0.25921162      0.72693656     -0.01128980
C       1.24100311      0.94982182      0.06541774
N       1.83859776     -0.39540437     -0.09655725
C       0.78024933     -1.31402933     -0.05491012
C      -0.42550622     -0.71464589     -0.04446537
O      -1.62753928     -1.36077297     -0.09206190
H      -0.98375495      2.71911514     -0.06224653
H      -2.26489835      1.40165114     -0.10523866
H       1.51647936      1.38134643      1.03110055
H       1.59627285      1.62317453     -0.71582488
H       2.59695025     -0.59140683      0.54196055
H       0.97956723     -2.37387227     -0.09181676
H      -2.28203367     -0.76817425     -0.47735294
