19
b3lypvtz=-192725.40538113
N      -3.17978899     -0.10452436     -0.19484477
C      -1.88496762      0.36331544      0.31196907
C      -0.76397739     -0.56552848     -0.14418419
C       0.59802881     -0.18038040      0.40412419
C       1.31774095      1.08842016     -0.12203244
C       2.59631925      0.22418772     -0.15598367
N       1.73903392     -0.98478950     -0.10708342
H      -3.18873972     -0.07481641     -1.20839495
H      -3.92540998      0.50626722      0.11728346
H      -1.64569871      1.39498122      0.01385664
H      -1.93684531      0.35903470      1.40459051
H      -0.70606105     -0.57541373     -1.23743528
H      -1.00686185     -1.58635593      0.16431188
H       0.55897771     -0.16060021      1.50295294
H       1.32224463      1.96823432      0.51737567
H       0.97725966      1.36612615     -1.11935175
H       3.21572100      0.37279292      0.73612370
H       3.23326088      0.29188157     -1.03952603
H       2.05984582     -1.72746242      0.50252643
