18
b3lypvtz=-202797.98116854
C       3.13614066     -0.82513969      0.00402408
C       2.23066723      0.39519183      0.07933539
N       0.82619213     -0.00853977      0.01670680
N      -0.02231497      1.12510611      0.01709594
C      -1.26630556      0.83621941     -0.04447506
N      -1.80134223     -0.42824398     -0.15053996
C      -3.21731438     -0.63871348      0.10254086
H       2.91495286     -1.52551936      0.81046136
H       3.01412990     -1.35360048     -0.94522503
H       4.18300222     -0.52960642      0.08145184
H       2.37455493      0.91693683      1.02615646
H       2.47772469      1.10824131     -0.71761498
H       0.66784045     -0.54494998     -0.83667398
H      -1.97260310      1.65975809     -0.05161796
H      -1.18165836     -1.13916161      0.21764403
H      -3.79804029      0.09803879     -0.45240507
H      -3.48882923     -0.56050004      1.16164078
H      -3.50915296     -1.62527856     -0.25578851
