14
b3lypvtz=-224597.44920984
C       2.57305382      0.55213758      0.07554165
N       2.09206086     -0.62240609     -0.03768473
N       0.74633424     -0.86042306      0.00084497
C      -0.31483737      0.04097295     -0.02928407
O      -0.18102504      1.25120848     -0.03411445
N      -1.54012377     -0.58565199     -0.07799512
C      -2.76403632      0.18688892      0.04612195
H       3.65499264      0.60703912      0.04258000
H       1.98833093      1.45363203      0.19505537
H       0.54877353     -1.82999337     -0.17555438
H      -1.58493789     -1.55490751      0.18781447
H      -2.60655820      1.15664956     -0.41708571
H      -3.57274561     -0.32782409     -0.47124784
H      -3.05471981      0.34954547      1.08814289
