13
b3lypvtz=-211361.81806897
N      -2.99408815     -0.37606540      0.00004669
C      -1.73325097     -0.49884542      0.00000951
N      -0.79549683      0.52880472     -0.00004448
C       0.59688297      0.47707414     -0.00006186
N       1.35412191      1.49970358     -0.00004769
C       1.26352455     -0.87670805     -0.00009300
N       2.51578002     -1.03198946      0.00006993
H      -3.29564204      0.59991694      0.00003121
H      -1.31152797     -1.49704574      0.00002375
H      -1.18522642      1.46199415     -0.00002576
H       0.84843616      2.38278617     -0.00000446
H       0.63681954     -1.76365077     -0.00012433
H       2.96607225     -0.11020688      0.00014350
