17
b3lypvtz=-217689.49705384
C      -1.60736758      1.12645306     -0.67149830
C      -1.30817336     -0.02273579     -0.06352941
O      -2.27245462     -0.84232210      0.42136564
O      -0.09086938     -0.56860770      0.17085016
C       1.10871637      0.11639739     -0.25762581
C       1.50532391      1.17458218      0.76287297
C       2.16485664     -0.96135302     -0.43384739
H      -2.64387030      1.39432323     -0.79280209
H      -0.85108565      1.79615275     -1.03972402
H      -1.83692084     -1.62658705      0.77547831
H       0.90021153      0.58040009     -1.22415492
H       0.70749067      1.90060875      0.91020596
H       1.72961488      0.70670914      1.72284641
H       2.39561378      1.70738695      0.42464852
H       1.84644815     -1.69815810     -1.17082922
H       2.34919525     -1.47399622      0.51150142
H       3.10188756     -0.51702358     -0.77145121
