11
b3lypvtz=-236290.18088963116
C      -0.92859736     -0.46009958      0.48900508
C       0.43982696     -0.04815045      0.01988297
N       1.17650236     -0.90515716     -0.65095560
N       1.85231772     -1.59845587     -1.21992073
C       1.01093601      1.27704043      0.21044436
O       2.09076216      1.65276327     -0.19266493
O      -1.99701271      0.03900453     -0.30810851
H      -1.09681541     -0.03660915      1.47929659
H      -0.97427116     -1.54946828      0.58487171
H       0.33995268      1.94001010      0.78934568
H      -1.91360127     -0.31087785     -1.20119660
