18
b3lypvtz=-181894.47890381
C      -2.17507187      0.13852079      0.02066129
C      -0.67195961      0.01835436      0.00745046
C       0.15300083      1.31769123     -0.03934998
N       1.54002066      0.75759047     -0.10541078
C       1.23974813     -0.68996041     -0.01050510
C       0.10683128     -0.83032408     -1.04962878
C       0.13216758     -0.79305234      1.07307809
H      -2.65191253     -0.84338230      0.03120403
H      -2.53406910      0.67351177     -0.86240412
H      -2.52005493      0.68655767      0.90138604
H      -0.00709005      1.94057547      0.84447279
H      -0.07057043      1.91719173     -0.92526112
H       2.07318751      1.05213574      0.70457266
H       2.12678400     -1.31801097     -0.01796315
H       0.27918591     -0.39865798     -2.03556247
H      -0.27681747     -1.84630056     -1.12766419
H       0.32237920     -0.32653020      2.04235271
H      -0.25810412     -1.80189640      1.20496561
