14
b3lypvtz=-227012.91330144
C      -2.39960334     -0.45147677     -0.16584065
C      -1.01430556      0.06141938      0.00083350
N      -0.60089095      1.23287949     -0.25615130
C       0.81683313      1.25754033      0.11231728
C       1.18767104     -0.20674783      0.43075498
O       2.00599567     -0.83193350     -0.50683628
O      -0.11239306     -0.84638674      0.49088130
H      -3.03936733      0.33860995     -0.54778486
H      -2.78499751     -0.80477181      0.79201382
H      -2.40929510     -1.29985272     -0.85198534
H       0.96193716      1.91081799      0.97540297
H       1.43232433      1.64969102     -0.69973735
H       1.66963063     -0.36081681      1.39228730
H       1.67862689     -0.63899198     -1.39328237
