19
b3lypvtz=-192735.77543954
C       2.38903325     -0.00794498     -0.51139547
C       1.06676205     -0.71002572     -0.51596136
C      -0.09598938     -0.23785153     -0.06224668
C      -0.25557368      1.13800880      0.55192510
N      -0.10355725      2.20003160     -0.46461963
C      -1.34858985     -1.07584176     -0.14923401
N      -1.87280736     -1.37235325      1.19230281
H       2.79187213      0.05565298     -1.52620950
H       2.31753430      1.00563150     -0.12516162
H       3.12266343     -0.56572388      0.07890203
H       1.07016082     -1.70984826     -0.94444332
H       0.51498533      1.30118520      1.30929340
H      -1.21633028      1.16607882      1.07536239
H      -0.74655327      2.03645697     -1.23161727
H      -0.35855434      3.09646696     -0.06377512
H      -1.14223871     -1.96961023     -0.75193113
H      -2.12775137     -0.51250223     -0.67510410
H      -1.23830762     -1.99258955      1.68225389
H      -2.76675823     -1.84522145      1.13165959
