14
b3lypvtz=-224554.00995436
C      -1.63724466      1.03854018     -0.40469828
O      -0.94688758      0.18981728     -1.33285923
C      -0.10668101     -0.74037539     -0.82535058
C      -0.20992471     -2.02878343     -1.15389596
N       0.88254982     -0.27729864      0.05657786
N       1.41205569      0.94824212     -0.05412999
N       2.43545890      1.09849651      0.64619260
H      -2.15611988      0.44004287      0.34773443
H      -0.95656136      1.73775660      0.07839361
H      -2.36475325      1.58711722     -0.99713498
H       0.54173435     -2.74438603     -0.85746936
H      -1.04637739     -2.36317677     -1.74534777
H       1.42440515     -0.95287273      0.58761269
H       2.72844593      2.06678020      0.50457496
