17
b3lypvtz=-194383.49148526
C       2.53964129     -0.55816697     -0.03601112
C       1.26885748     -0.18169960     -0.03553067
C       0.75732322      1.24633911      0.00641252
O      -0.65628585      1.16279872     -0.14102354
C      -1.07262430     -0.10562209      0.38118270
C      -2.45922890     -0.41952572     -0.13694438
C       0.04396219     -1.06638168     -0.05037683
H       3.34610641      0.16512908     -0.02851175
H       2.82415817     -1.60247200     -0.04688995
H       1.01771816      1.72126148      0.96231037
H       1.14814015      1.86816406     -0.79989252
H      -1.09295099     -0.04816213      1.47980190
H      -2.45468175     -0.46959776     -1.22685194
H      -3.16627292      0.35170711      0.16904726
H      -2.80618801     -1.37694857      0.25535396
H       0.13999801     -1.93711111      0.59806257
H      -0.15481636     -1.42116094     -1.06649457
