17
b3lypvtz=-171049.48957522
C      -0.01555096     -0.00111908      1.43827167
C       0.02947005     -1.13532034      0.39626412
C      -1.33388758     -0.94668996     -0.31558029
C      -0.69096259      0.34689171     -0.82469262
C       0.70761188     -0.34549555     -0.81031621
C       1.33948784      0.94733738     -0.28558554
C      -0.03871082      1.13480242      0.39730645
H       0.86204402      0.04978777      2.08406139
H      -0.90627454     -0.05301291      2.06571495
H       0.38008912     -2.11460462      0.71210945
H      -2.23324960     -0.90631431      0.30304171
H      -1.48059927     -1.65349717     -1.13364850
H      -1.06112812      0.93093511     -1.66350299
H       1.09563567     -0.92817673     -1.64195384
H       1.50361489      1.65532521     -1.09932392
H       2.22540823      0.90601460      0.35210845
H      -0.39609821      2.11353648      0.70722572
