23
b3lypvtz=-173376.01464065
C      -3.83539725     -0.35207091      0.00000033
C      -2.56182318      0.49271313      0.00000043
C      -1.28058763     -0.34302865      0.00000019
C      -0.00000002      0.49329350     -0.00000038
C       1.28058777     -0.34302839     -0.00000009
C       2.56182316      0.49271362     -0.00000088
C       3.83539743     -0.35207011     -0.00000003
H      -4.72999608      0.27299402      0.00000095
H      -3.88156551     -0.99644456      0.88090901
H      -3.88156602     -0.99644351     -0.88090910
H      -2.56166831      1.15144209      0.87418381
H      -2.56166844      1.15144245     -0.87418268
H      -1.28179615     -1.00283714     -0.87470158
H      -1.28179561     -1.00283678      0.87470223
H       0.00000003      1.15287321      0.87473336
H      -0.00000019      1.15287231     -0.87473479
H       1.28179631     -1.00283615      0.87470223
H       1.28179598     -1.00283725     -0.87470158
H       2.56166822      1.15144192     -0.87418477
H       2.56166821      1.15144362      0.87418172
H       3.88156631     -0.99644196      0.88090995
H       4.72999612      0.27299502     -0.00000115
H       3.88156585     -0.99644448     -0.88090818
