18
b3lypvtz=-205208.5611531
C       1.19113789      1.24326242     -0.27153205
C       0.65048975     -0.16058907     -0.55801587
C       1.63026029     -1.25483949     -0.15041871
O       2.78903059     -1.08056089      0.12237821
N      -0.66888588     -0.50276931     -0.02775528
C      -1.77875552      0.10482390     -0.74265799
C      -0.79771277     -0.35526518      1.41525317
H       2.16048158      1.37260532     -0.75081524
H       0.51354558      2.00785926     -0.65181590
H       1.33461200      1.40591352      0.79643331
H       0.57196646     -0.28343230     -1.64747408
H       1.17563293     -2.26669968     -0.14202988
H      -1.68758719     -0.09579078     -1.81085072
H      -1.85516704      1.19513576     -0.60320004
H      -2.71533985     -0.33660861     -0.39773438
H      -0.83597665      0.69180392      1.75256772
H      -1.71542093     -0.84417247      1.74542902
H       0.03758875     -0.84067634      1.92213870
