15
b3lypvtz=-193594.97645259
C       1.89874232     -0.38917884     -1.19691969
C       0.61582883      0.34771799     -1.00365078
C      -0.30499452      0.11944359     -0.05683582
C      -1.58352505      0.92993109      0.03377420
O      -1.70502216      1.64855287      1.25477454
C      -0.15958467     -0.88910348      0.94188520
C      -0.11113284     -1.71034189      1.82093942
H       2.03112043     -1.17945800     -0.46033661
H       1.94164142     -0.83451577     -2.19500842
H       2.74851740      0.29587843     -1.12657602
H       0.41271906      1.14968082     -1.70653418
H      -2.44544442      0.26676698     -0.10989441
H      -1.59572796      1.67576771     -0.75977836
H      -1.69550281      1.01255497      1.97838409
H      -0.04763504     -2.44369645      2.58577686
