14
b3lypvtz=-226978.80998131
C       0.52946857      2.01513618     -0.45971093
C       0.16783917      1.00929746      0.64627950
C      -0.09477765     -0.36441174      0.10965415
C      -1.48009982     -0.80939479     -0.18826621
O      -2.45433034     -0.11562551     -0.01614828
N       0.77326835     -1.26984724     -0.15819133
O       2.07176577     -0.86646319      0.10599543
H       0.70068286      3.00126839     -0.02714436
H       1.43477394      1.71198325     -0.98455274
H      -0.27861777      2.10359684     -1.18608204
H      -0.73456916      1.34167794      1.15855970
H       0.97872555      0.95439629      1.37260944
H      -1.55033798     -1.83739129     -0.58530316
H       2.59256852     -1.64339660     -0.12618217
