11
b3lypvtz=-238712.91505499
C      -0.60891059      1.06456282     -0.55897006
C       0.68413640      1.15772122      0.08953537
C       0.97303642     -0.08400944      0.52333233
O      -0.03271431     -0.96375361      0.20361824
C      -0.98365893     -0.22498424     -0.45793728
O      -2.07875035     -0.88985998     -0.87303379
O       2.02838519     -0.59381397      1.18659089
H      -1.16635241      1.85451032     -1.02856572
H       1.29815832      2.03199036      0.20745695
H      -2.00029396     -1.81632112     -0.62089953
H       1.88696424     -1.53604235      1.32887259
