15
b3lypvtz=-240229.55081613
C      -2.18190539     -0.67255449     -0.05854311
O      -0.85539981     -0.66699347     -0.57644077
C       0.05520901      0.23470291      0.03991836
C      -0.30258732      1.69668449     -0.20489055
O       0.17966818      0.02409602      1.41263961
C       1.36607368     -0.14576476     -0.66643484
O       2.29991555     -0.61161331     -0.06979204
H      -2.68479958     -1.51618896     -0.52600632
H      -2.72217825      0.24375413     -0.31299371
H      -2.18070561     -0.80517554      1.02417047
H      -0.47142055      1.87976375     -1.26596776
H      -1.20380819      1.95715967      0.34806090
H       0.50224694      2.33982644      0.15037765
H       0.92716484     -0.57982304      1.54226757
H       1.38223751      0.00750416     -1.75955446
