17
b3lypvtz=-191989.27578061
C       1.91854751     -1.05829928     -0.33658503
C       1.22728672      0.20093468      0.11715384
N       1.56229510      1.38797220     -0.18705599
C      -0.00000038      0.00000578      0.99275412
C      -1.22729440     -0.20093411      0.11716604
C      -1.91856263      1.05829406     -0.33657753
N      -1.56230136     -1.38797504     -0.18703198
H       2.67430696     -0.84905464     -1.09333391
H       1.19097775     -1.76982596     -0.73131645
H       2.40135677     -1.54372467      0.51600753
H       2.37938769      1.39130838     -0.79924181
H      -0.12173498      0.88347298      1.61782922
H       0.12173969     -0.88345362      1.61783928
H      -2.67433038      0.84904047     -1.09331564
H      -2.40136262      1.54372784      0.51601546
H      -1.19099850      1.76981764     -0.73132503
H      -2.37939893     -1.39131871     -0.79921113
