20
b3lypvtz=-182659.42276045
C       2.67765095     -1.03256312      0.04705573
C       2.05282893      0.35740631      0.18460386
C       0.68614808      0.46166067     -0.45386809
C      -0.29823852      1.51796446     -0.02144198
C      -0.55296940      0.06661540      0.29844245
N      -1.60545814     -0.60007421     -0.41582795
C      -2.91625547     -0.48219525      0.21163722
H       3.66468205     -1.07258324      0.51096960
H       2.79353202     -1.30899967     -1.00314623
H       2.05446845     -1.79312490      0.52194132
H       2.71703960      1.10184527     -0.26559387
H       1.97807972      0.62260402      1.24336197
H       0.65606977      0.21906640     -1.51027607
H      -0.01622238      2.17792783      0.78852887
H      -0.92267983      1.96534062     -0.78191900
H      -0.40648400     -0.21570359      1.34388381
H      -1.37004792     -1.57563863     -0.55161818
H      -3.22232940      0.56518078      0.21850087
H      -2.95125177     -0.84523044      1.25043491
H      -3.65073275     -1.04063570     -0.36968224
