14
b3lypvtz=-180359.03507731
C      -3.48358715      0.65122731      0.00003183
C      -2.41887456      0.09197145      0.00002388
C      -1.20200644     -0.64187371      0.00001794
N      -0.05696324     -0.06952827      0.00001111
C       1.07375054     -0.87351243      0.00000522
C       2.31312063     -0.36433664     -0.00000267
C       2.66664778      1.08512449     -0.00000393
H      -4.41283400      1.16450237     -0.00000355
H      -1.30298076     -1.73394086      0.00001842
H       0.93283791     -1.95596077      0.00000678
H       3.13514843     -1.07195076     -0.00000867
H       1.77743021      1.71005787      0.00000159
H       3.27354461      1.33272470     -0.87581344
H       3.27355506      1.33272426      0.87579848
