16
b3lypvtz=-227744.26222731
C       1.95905865     -1.30710281     -0.02918961
N       1.29556859     -0.28586535      0.29492013
C      -0.04906501     -0.11230082     -0.23365318
C      -0.14862627      1.30476994     -0.81497609
O       0.20120333      2.29450168      0.13540344
C      -1.06187581     -0.32920838      0.90485985
O      -2.40440922     -0.22818646      0.45126231
H       1.57717613     -2.08577311     -0.70119104
H       2.96424765     -1.44170876      0.36431253
H      -0.26415077     -0.83854361     -1.03463842
H      -1.17800600      1.49768505     -1.11492152
H       0.48951903      1.36900410     -1.70535563
H       1.03293650      2.01110175      0.53524554
H      -0.87284554     -1.29793035      1.37946378
H      -0.93132530      0.44875221      1.65463805
H      -2.60960597     -0.99929507     -0.08608016
