20
b3lypvtz=-182663.88036813
C      -1.33653456      2.01806406     -0.07553553
C      -0.72182499      0.67041109     -0.37068067
C      -1.11185066     -0.55848970      0.40979702
C      -1.37688422     -1.88565768     -0.26503625
C       0.27385510      0.03364590      0.56860597
C       1.53377078     -0.63397988      0.05480918
N       2.65692490      0.26869207     -0.22621123
H      -0.68694070      2.83473944     -0.40005220
H      -2.29788795      2.13802247     -0.58105321
H      -1.51009212      2.14185403      0.99542348
H      -0.52694510      0.48938871     -1.42439031
H      -1.77309671     -0.36618790      1.24875530
H      -1.20181757     -2.72250833      0.41532588
H      -0.74627699     -2.03619886     -1.14116344
H      -2.41543864     -1.94512332     -0.59893964
H       0.42995055      0.57095483      1.50038375
H       1.88274859     -1.37353622      0.78093439
H       1.32126998     -1.18687882     -0.86183190
H       2.36848382      0.98024154     -0.88908023
H       2.92592548      0.76222758      0.61789564
