16
b3lypvtz=-256062.62752344
O      -1.24781225     -0.64367563     -1.69295765
C      -0.93459171     -1.18793300     -0.41838813
C       0.00934042     -0.31359827      0.41796299
C       1.28441459      0.03456821     -0.34552824
O       2.19616189      0.63338287      0.57624430
C      -0.67967245      0.92073722      0.97538704
F      -1.22697323      1.69904449     -0.07038639
H      -1.60027801      0.24251304     -1.55504166
H      -0.45962599     -2.14974519     -0.61752895
H      -1.84669624     -1.38871522      0.15881036
H       0.30697477     -0.90400509      1.29306231
H       1.70889002     -0.88015484     -0.77419370
H       1.05350611      0.71335034     -1.16961768
H       2.92608726      1.01800089      0.08393403
H       0.02197982      1.55714253      1.51138840
H      -1.51190499      0.64898765      1.62685297
