12
b3lypvtz=-223808.43622959
C       0.26733092      0.27659345      1.81243865
C       0.61267926      0.21066234      0.52299978
N      -0.09254633     -0.43545616     -0.49579865
C      -1.34052106     -0.27341226     -0.61007866
O      -2.07613711     -0.92449345     -1.51472961
N       1.88300996      0.79489991      0.17441142
N       2.28473187      0.70129388     -0.99291823
H       0.92984697      0.77668097      2.50248148
H      -0.63371354     -0.18231997      2.19211934
H      -1.94897238      0.40076591     -0.00773609
H      -1.48785706     -1.51713221     -2.00768402
H       1.60214850      0.17191759     -1.57550541
