12
b3lypvtz=-226241.56342648
N       1.08707557      1.74779795     -0.00004009
C       0.26113496      0.78929520     -0.00002593
O      -1.07562625      1.02846590     -0.00004238
C      -1.79429781     -0.21779336     -0.00008548
C      -0.74285230     -1.27827006     -0.00002668
C       0.44781317     -0.68069171      0.00001081
O       1.66280933     -1.26584179      0.00004768
H       2.05206766      1.42741967     -0.00006953
H      -2.43583540     -0.24259335      0.88533760
H      -2.43573483     -0.24258493     -0.88558249
H      -0.94426579     -2.33735826     -0.00002392
H       2.34797169     -0.58678126      0.00035741
