14
b3lypvtz=-203708.75791944
O      -0.20755884      2.30502529     -1.33384422
C      -0.02080857      1.23528207     -0.79342008
N       1.19746455      0.72557365     -0.41867581
C       1.18910700     -0.66941805     -0.00634715
C      -0.29643649     -0.97882265      0.13603208
C      -1.08250977     -0.12178962      1.07625723
C      -1.05298714      0.21637952     -0.39789242
H       2.03944165      1.24576756     -0.59834166
H       1.64451814     -1.31319080     -0.76551610
H       1.73475432     -0.81436449      0.93010823
H      -0.62675111     -1.98815517     -0.05902566
H      -2.00885915     -0.52709185      1.45856892
H      -0.55612118      0.53077772      1.76096758
H      -1.95335340      0.15392683     -0.98867094
