15
b3lypvtz=-216918.35973516
C      -0.97759588     -1.08368107     -0.25372445
C       0.16946057     -0.05279560     -0.41341370
C      -0.53371528      1.22812413     -0.02906164
C      -1.81232793      0.96485046      0.20980713
O      -2.18410144     -0.34063258      0.05866260
C       1.38840687     -0.38864065      0.45201378
O       2.43706358      0.56276329      0.32588973
H      -0.79093877     -1.77462371      0.57273137
H      -1.16800287     -1.66272841     -1.15577600
H       0.50796500     -0.01350721     -1.45682756
H      -0.05745170      2.19119739      0.03685708
H      -2.61254189      1.62653308      0.50435470
H       1.10280691     -0.37793025      1.50496451
H       1.74631782     -1.39918452      0.21391316
H       2.78465503      0.52025567     -0.57039073
