13
b3lypvtz=-239467.80014812
C       2.66968684     -0.35589189     -0.03679157
C       1.38175919     -0.71629040      0.03500771
C       0.26294175      0.18484778      0.00739575
O       0.47320923      1.56896977     -0.05951404
C      -1.03643814     -0.17754647      0.01793425
O      -1.45789594     -1.45541332      0.01787712
O      -2.04746280      0.71784349      0.00573879
H       2.97085353      0.67422674     -0.17596048
H       3.45747633     -1.09284147      0.01757024
H       1.12506768     -1.76328454      0.14410514
H       1.07198030      1.81891816      0.65478781
H      -2.41732124     -1.45326568     -0.08054540
H      -1.63537073      1.59562683     -0.01808332
