12
b3lypvtz=-252137.98851989
C      -1.83885913     -0.74129915      0.36078522
N      -0.65157362     -0.85744752     -0.08870234
C       0.25228429      0.19472036     -0.03025618
N      -0.09690258      1.45453339      0.51540103
C       1.44497342     -0.08605283     -0.59539539
O       1.77358775     -1.21289979     -1.22019021
F       2.43657477      0.79773874     -0.62334355
H      -2.50426650     -1.59513785      0.29406155
H      -2.22137965      0.18295845      0.79203874
H       0.51654327      2.19051971      0.19506703
H      -0.09764643      1.45461152      1.52992039
H       0.98676441     -1.78214504     -1.12948628
