15
b3lypvtz=-212139.59773858
C       2.70854441      0.61051469      0.30321377
N       2.00592957     -0.53785343     -0.24017173
C       0.65908485     -0.59023003     -0.32696494
N      -0.09217470      0.34636913      0.12163876
C      -1.48517915      0.20699180      0.03032918
N      -2.28113686      1.15857917     -0.26228824
N      -1.99410404     -1.07376464      0.26710777
H       3.77434710      0.39337933      0.32421105
H       2.53336414      1.50734823     -0.29520142
H       2.36554007      0.81678387      1.31652381
H       2.53075904     -1.23392095     -0.73718412
H       0.27380280     -1.49083596     -0.81029633
H      -1.74094646      1.99277864     -0.47548867
H      -3.00097147     -1.06739638      0.34028693
H      -1.55389430     -1.56874547      1.02816917
