18
b3lypvtz=-202815.39694098
N       3.32099754      0.22910408     -0.04920160
C       2.06551390     -0.49903268     -0.26424003
C       0.89802204      0.21132658      0.42671452
C      -0.39207250     -0.54627955      0.30523221
C      -1.59945886     -0.02593648      0.02983291
N      -2.73545678     -0.80059635     -0.26151142
N      -1.90802852      1.33846844     -0.00817407
H       4.10068014     -0.28526348     -0.44160688
H       3.29565084      1.12018933     -0.53291716
H       2.18098679     -1.49394649      0.17395032
H       1.81353189     -0.64874144     -1.32341539
H       0.79990765      1.21167572     -0.01237004
H       1.18456876      0.37003709      1.47269429
H      -0.34198883     -1.61801886      0.46470302
H      -2.56474711     -1.79174620     -0.18184278
H      -3.54224139     -0.52910555      0.28614037
H      -1.11454099      1.94739783      0.11160894
H      -2.46008458      1.59712902     -0.81480420
