16
b3lypvtz=-225330.91636296
C       1.90934516     -0.28995967      0.21394931
N       0.85522134      0.55658153     -0.31646910
C      -0.45037395      0.49169072      0.09945396
N      -1.28769495      1.46376874     -0.00748580
O      -0.63610858      2.61459324     -0.55803785
C      -1.01952824     -0.81083502      0.61210004
N      -1.22265957     -1.84876100     -0.40460537
H       2.82416685     -0.09132100     -0.34233015
H       1.67369937     -1.34583778      0.08119468
H       2.11386723     -0.11981607      1.27721135
H       1.13307926      1.48673280     -0.58703285
H      -1.33961187      3.26826177     -0.54234842
H      -0.38406078     -1.22091814      1.39954039
H      -1.98107779     -0.57928492      1.06557723
H      -1.83851259     -1.49331825     -1.12742158
H      -0.34975090     -2.08157694     -0.86329586
