14
b3lypvtz=-250313.87742126
C      -2.00893974      1.23480790      0.16634423
N      -1.64623201     -0.16178183     -0.07251962
C      -0.28425998     -0.50907662      0.21627277
O      -0.08885981     -1.86714512      0.05073706
O       0.51575840      0.24410104     -0.73639533
C       1.75814729      0.60924229     -0.36517797
O       2.27461468      0.43023375      0.70005726
H      -1.76781202      1.58696492      1.17847868
H      -3.08023490      1.34949080      0.00937333
H      -1.49567937      1.87366133     -0.54952160
H      -2.23542437     -0.78130408      0.46947489
H       0.07430912     -0.25859386      1.21660869
H      -0.48376745     -2.10797535     -0.79851815
H       2.23721115      1.11987782     -1.21150726
