18
b3lypvtz=-205216.86353642
C      -2.19750179      0.16373282     -0.75281687
C      -1.16121996      0.77548445      0.15387701
N      -1.11902430      2.04216447      0.26053509
C      -0.24540714     -0.18381220      0.89162509
C       0.71600749     -0.97699979     -0.00976240
C       1.70254747     -0.09937424     -0.76137753
O       2.55293712     -0.95608373     -1.51944595
H      -2.79763905      0.94700210     -1.20870488
H      -1.73322222     -0.43463052     -1.53972553
H      -2.84951207     -0.50880674     -0.18877956
H      -0.38328324      2.32579185      0.91020871
H       0.32783149      0.37891359      1.63314499
H      -0.86297020     -0.89827769      1.44410279
H       0.15972861     -1.57740104     -0.73224103
H       1.28029159     -1.68029207      0.60615878
H       1.16996342      0.59981801     -1.41598094
H       2.28611114      0.49752958     -0.04766495
H       3.15436162     -0.41475885     -2.03816326
