14
b3lypvtz=-203636.02203503
C      -1.72393845      0.82073470      0.28866442
C      -1.11876358     -0.39206488     -0.29131714
N      -0.44741610      0.97660771     -0.42350342
C       0.59119226      0.50822895      0.54429874
C      -0.02856415     -0.91874661      0.61528990
O       1.08970581     -1.47263729     -0.10759722
C       1.75211934     -0.18145601     -0.16990718
H      -1.74683895      0.95649750      1.36569220
H      -2.56000589      1.25860510     -0.23973189
H      -1.53120413     -0.91244978     -1.14546710
H       0.79780469      1.18591825      1.37002284
H      -0.28704123     -1.51439265      1.49069118
H       1.93039208      0.15323109     -1.19323921
H       2.68935829     -0.19907605      0.39090386
