16
b3lypvtz=-204448.87634041
C      -3.64277278     -0.24897693      0.08171079
C      -2.27668916      0.33887091      0.18591571
N      -1.23342060     -0.29017126     -0.17940365
C       0.00322151      0.34152134     -0.04199887
C       1.14034943     -0.23879403     -0.43105134
C       2.48447671      0.39925007     -0.30183553
O       3.38796939     -0.38578390      0.48082874
H      -3.59546814     -1.25424759     -0.33111666
H      -4.27995023      0.37369004     -0.55312164
H      -4.12163146     -0.28224629      1.06465876
H      -2.20924869      1.35651174      0.59744283
H       0.01927966      1.34460208      0.39400877
H       1.09972982     -1.23611410     -0.85459658
H       2.96318196      0.48369002     -1.27995966
H       2.38719405      1.41271898      0.10547360
H       2.96379652     -0.56678508      1.32591674
