13
b3lypvtz=-213769.49215128
N       1.72260112     -0.80200105     -0.11660449
C       0.70222811      0.15115399      0.03512791
C       0.76096673      1.50056717      0.18566105
O      -0.49755443      2.03205897      0.21437336
C      -1.37094980      0.99011827      0.07715478
C      -0.69470460     -0.18306171     -0.03839073
N      -1.15801693     -1.50596818     -0.12673985
H       2.64518058     -0.42392761      0.04339918
H       1.57999760     -1.60414831      0.48489936
H       1.57672915      2.19526073      0.27312576
H      -2.41717202      1.23700433      0.08906299
H      -2.15759161     -1.56807717     -0.25591927
H      -0.69191391     -2.01887943     -0.86515006
