11
b3lypvtz=-233856.50402582
C       2.43692963      0.02375796      0.00001949
N       1.42130420     -0.73788933      0.00010283
N       0.15478222     -0.19849993      0.00000543
C      -0.86646151     -1.13233774      0.00010540
O      -2.04901703     -0.86770500     -0.00004621
N       0.02435053      1.22153532      0.00019895
N      -1.09598386      1.72830035     -0.00004533
H       3.39759592     -0.47507530      0.00008544
H       2.39232150      1.10657498     -0.00009324
H      -0.45711952     -2.15235859     -0.00014402
H      -1.85255009      1.02868427     -0.00037674
