11
b3lypvtz=-212958.74585103
C       1.89902454      0.07044928     -0.52281617
C       0.59528173      0.24307801     -0.27269918
C      -0.22547861     -0.72615487      0.41820295
C      -1.51913607     -0.48256886      0.62891773
N      -2.10786152      0.72053131      0.18270231
N      -1.50513973      1.59086992     -0.40243204
O      -0.03893283      1.39193323     -0.67741295
H       2.38769875     -0.83629647     -0.19980947
H       2.47742813      0.81894648     -1.04210705
H       0.23770422     -1.64327345      0.75415476
H      -2.20058863     -1.14751458      1.13329911
