18
b3lypvtz=-233525.65849104
C      -1.87059734     -0.63731571     -0.92391128
C      -0.56655269     -0.07315107     -0.35106392
C      -0.82056550      0.71777729      0.92144060
F      -1.26507536     -0.12396507      1.95277720
C       0.47316935     -1.19047178     -0.15765372
C       1.82987865     -0.73531480      0.35414127
O       2.34320464      0.26006583     -0.53412223
H      -2.58682776      0.15923777     -1.13493082
H      -1.68657864     -1.17555926     -1.85497452
H      -2.33781330     -1.32951380     -0.22158142
H      -0.15237451      0.64817289     -1.06186168
H       0.08336498      1.21319226      1.27800683
H      -1.59661783      1.47020117      0.76528606
H       0.61539764     -1.69607974     -1.11602214
H       0.08083098     -1.93502452      0.53978496
H       2.50443844     -1.59781697      0.39840954
H       1.74192252     -0.33618717      1.37108403
H       3.21099575      0.53335268     -0.22480877
