15
b3lypvtz=-242811.88119791
O       1.38704059     -1.16057733     -1.11635374
C       0.92765674      0.15715060     -0.83126080
C      -0.15680845      0.08425581      0.22374439
C      -0.61883585      1.42471993      0.72591661
F      -1.19798293      2.16212800     -0.31413340
C      -1.09094394     -1.06226505      0.24730144
N      -0.05561044     -0.91826446      1.29101841
H       2.01888404     -1.12079453     -1.83835755
H       0.52444248      0.64173084     -1.72576197
H       1.75019517      0.77787202     -0.45174066
H      -1.36155351      1.29709320      1.51254422
H       0.21795511      2.01284402      1.11232060
H      -2.10891833     -0.91765075      0.58753373
H      -0.95011874     -1.83409552     -0.49713164
H       0.71439806     -1.54424680      1.07456035
