16
b3lypvtz=-227768.19173633
C       3.05765659     -0.39641529      0.30684638
O       1.80324132     -0.25453141     -0.32810439
C       0.99440298      0.75788472      0.24719828
C      -0.33307810      0.77136476     -0.48606086
N      -1.01866816     -0.50360232     -0.37419303
C      -2.27747072     -0.63908323      0.11009416
O      -2.99353030      0.26854119      0.48119652
H       3.64595295      0.52688401      0.24229103
H       3.59355682     -1.19319790     -0.20557338
H       2.94468998     -0.66364683      1.36454714
H       0.83707163      0.55686417      1.31496277
H       1.48116751      1.73785787      0.15224748
H      -0.16033715      1.01322022     -1.53816601
H      -0.99100178      1.52945849     -0.06515614
H      -0.50600030     -1.33213006     -0.62696091
H      -2.59925728     -1.69550138      0.13165197
