13
b3lypvtz=-190456.71335211
C      -1.76616144      1.34421067     -0.10237860
C      -1.35828219      0.07220055     -0.07480495
C      -2.26872354     -1.10858670      0.09968631
N      -0.02158981     -0.28597364     -0.32589881
C       0.91168595      0.26664565      0.33190176
C       2.28840672     -0.03384088      0.04882791
N       3.40887986     -0.23382371     -0.12882433
H      -2.81226998      1.59066926      0.00780562
H      -1.08018417      2.15562224     -0.30198425
H      -2.20105573     -1.76537009     -0.76923828
H      -1.97354040     -1.69848757      0.97054314
H      -3.30108664     -0.78996570      0.22792009
H       0.73761136      0.98529293      1.13695839
