18
b3lypvtz=-205199.50564546
C       1.24776359      1.55758256     -0.08372497
C       0.88830274      0.09178259     -0.15974314
C      -0.52215241     -0.25331008     -0.59318544
C      -1.60727865      0.23779048      0.36553342
N      -2.92747270     -0.17669869     -0.12144183
C       1.95652928     -0.89457760     -0.35945432
O       1.38544229     -0.70163232      0.93914014
H       1.11438618      2.03777838     -1.05554402
H       2.28478864      1.68055217      0.22568133
H       0.61765844      2.07964447      0.63782844
H      -0.59801619     -1.34037348     -0.68213647
H      -0.71366371      0.16117135     -1.58675240
H      -1.37407109     -0.12037041      1.37688454
H      -1.60261689      1.32909074      0.40391024
H      -3.65695820      0.20272831      0.47027407
H      -3.01652955     -1.18576806     -0.07311107
H       2.98407072     -0.55964188     -0.46735740
H       1.73001250     -1.84711451     -0.82942712
