16
b3lypvtz=-204433.01966546
O       3.25626043      1.20828073      0.80278026
C       2.26876990      0.81933563      0.23075001
C       1.22899116     -0.07673303      0.86037486
C      -0.20887295      0.33853937      0.53346332
N      -0.49010957      0.17802493     -0.88853163
C      -1.89439974      0.11649764     -1.26715516
C      -1.04930245     -1.10599960     -1.29963845
H       2.06933507      1.10544037     -0.81970146
H       1.39717997     -1.09158440      0.48088289
H       1.39908508     -0.09688655      1.93741524
H      -0.90310030     -0.24473037      1.15797248
H      -0.36077659      1.39085586      0.78798946
H      -2.15987920      0.62557945     -2.18487183
H      -2.63479976      0.18380431     -0.47574944
H      -1.22795414     -1.85077162     -0.52966579
H      -0.69042692     -1.49945272     -2.24201475
