14
b3lypvtz=-232000.05052414
C      -2.27740016      0.50478538     -0.10568476
C      -1.42447404     -0.71397216      0.05058533
C      -0.10884585     -0.79147957     -0.15377647
F       0.48238806     -2.00912564      0.04626976
C       0.82278011      0.23178680     -0.56449387
C       2.12925915      0.00864731     -0.73188428
O       2.97208716      1.00480478     -1.12073633
H      -3.06439277      0.33840835     -0.84666828
H      -1.71059939      1.38005797     -0.41812658
H      -2.77919562      0.75345527      0.83370591
H      -1.91470553     -1.62930414      0.36003099
H       0.43591525      1.22495560     -0.74332487
H       2.56985309     -0.96608883     -0.56674303
H       3.86713053      0.66286889     -1.18895353
