20
b3lypvtz=-182655.42162827
C       2.54015741     -0.04786556      0.27758026
C       1.17784594     -0.50136247      0.80693750
C      -0.01167368     -0.00868192     -0.00361310
C      -0.41723960     -0.77699096     -1.21724725
N      -1.15372122     -0.93275494      0.03220637
C      -2.52139926     -0.44282831      0.08619915
C      -0.23008695      1.49062346      0.02785217
H       2.68019944     -0.35173984     -0.76205303
H       3.34762775     -0.48980514      0.86325561
H       2.66031573      1.03553551      0.32543299
H       1.05592937     -0.16919873      1.84360311
H       1.13201074     -1.59119935      0.82837263
H       0.15363462     -1.63857916     -1.54678203
H      -0.89792901     -0.22280088     -2.01948144
H      -2.77279204     -0.17641377      1.11409889
H      -2.72795289      0.42314436     -0.55551190
H      -3.18807121     -1.25015222     -0.22146511
H      -1.07059631      1.80468906     -0.58750627
H      -0.40943994      1.83363761      1.05046599
H       0.65318111      2.01274324     -0.34234453
