16
b3lypvtz=-227755.27736546
C       2.39531419     -0.02007189      0.41058245
C       1.11933108      0.19535961     -0.35334650
N       1.14053821      0.55114105     -1.56859847
C      -0.16732270     -0.06104378      0.43948992
O      -0.23613658     -1.41003603      0.87198864
O      -1.25939271      0.29926284     -0.35203173
C      -2.50001964      0.34416838      0.34284123
H       2.42326538     -1.01550761      0.85582863
H       3.24608468      0.11433844     -0.25254362
H       2.46943365      0.69566807      1.23441920
H       0.18518580      0.66887081     -1.91124474
H      -0.15907044      0.51896646      1.37038828
H      -0.17827075     -1.97379538      0.09057261
H      -2.75472443     -0.62987100      0.76417473
H      -3.25561151      0.63636194     -0.38264627
H      -2.46860423      1.08618809      1.14780900
