13
b3lypvtz=-190446.55470164
C       1.79773648      1.19446019     -0.00008102
N       0.53545434      1.26985267     -0.00001245
C      -0.27167529      0.09235963      0.00006809
C       0.37641456     -1.19850753      0.00007535
N       0.94315144     -2.20185853      0.00007253
C      -1.59735063      0.21866185      0.74347329
C      -1.59743639      0.21861022     -0.74319349
H       2.36570499      2.12001335     -0.00010883
H       2.35738145      0.25576989     -0.00003132
H      -1.94882774     -0.65993609      1.26383566
H      -1.73275870      1.15819897      1.25781831
H      -1.94897096     -0.66002565     -1.26345251
H      -1.73290755      1.15811002     -1.25758960
