18
b3lypvtz=-181913.57012654
C       3.68758482      0.26327831      0.09405407
C       2.33595404     -0.35066760      0.25546742
C       1.19750446      0.18716301     -0.18491791
N      -0.03245153     -0.44558385      0.00326457
C      -1.08251989      0.11732240     -0.44057506
C      -2.44634510     -0.47563416     -0.28203825
C      -3.39637723      0.44018902      0.50292284
H       4.15974765      0.43802155      1.06525739
H       3.63878680      1.21569542     -0.43497901
H       4.35801448     -0.39958499     -0.46073848
H       2.27169479     -1.30456963      0.76815714
H       1.20443541      1.14702068     -0.70887945
H      -1.03086424      1.08728835     -0.95916750
H      -2.34686707     -1.44396079      0.20821699
H      -2.86771263     -0.65174802     -1.27841560
H      -4.39279086      0.00129074      0.56396587
H      -3.49223983      1.41733839      0.02513676
H      -3.03332206      0.59867819      1.51922620
