13
b3lypvtz=-239468.71688299
C      -0.93076997     -1.46048272      0.97264823
C      -0.79186577     -0.25631611      0.42561004
O      -1.83474552      0.45506606     -0.06340252
C       0.56096777      0.41211363      0.20783618
O       0.40924525      1.81180780      0.13850963
C       1.18348692     -0.09607179     -1.08765575
O       1.49156502      0.66141100     -1.97248449
H      -0.06965567     -1.99329754      1.34689919
H      -1.90193202     -1.92377571      1.06152164
H      -1.51137465      1.36063355     -0.19963937
H       1.23305953      0.12816033      1.02614351
H       0.83502223      2.08722611     -0.69130620
H       1.32689688     -1.18637460     -1.16468010
