14
b3lypvtz=-227004.11068012
N       1.16520225     -1.75598471      0.12294109
C      -0.04393708     -1.16523392      0.03076178
C      -0.28604627      0.17010880      0.12264042
C      -1.65774622      0.62921507     -0.03049316
O      -2.64318132     -0.07095943     -0.18307327
C       0.80128837      1.16200815      0.39690985
O       1.91365299      0.93911482     -0.49537848
H       1.25509729     -2.73143214     -0.09553555
H       1.98145875     -1.17576146      0.00045048
H      -0.89373514     -1.82202117     -0.11459188
H      -1.77032559      1.73476934      0.00037461
H       1.15490910      1.07261754      1.43319155
H       0.40848945      2.17588507      0.26851015
H       2.60643643      1.56978702     -0.27603758
