17
b3lypvtz=-171053.02555973
C      -3.24939394     -0.07838122      0.00007471
C      -1.79448619     -0.00327383      0.00016441
C      -0.59267201      0.05353368      0.00002943
C       0.84693718      0.14976083     -0.00002246
C       1.39837672      1.56612354     -0.00139362
C       1.62375460     -0.91666000      0.75124291
C       1.62379947     -0.91814409     -0.74909902
H      -3.58923118     -1.10188065     -0.17230445
H      -3.66500905      0.25230532      0.95444680
H      -3.67807734      0.54864057     -0.78474668
H       1.06347983      2.11220705     -0.88484289
H       1.06333634      2.11390606      0.88094807
H       2.48940708      1.55391073     -0.00131909
H       2.52087959     -0.59859606      1.26535148
H       1.05679055     -1.68196689      1.26089699
H       1.05691118     -1.68447012     -1.25731161
H       2.52093815     -0.60108194     -1.26379997
