14
b3lypvtz=-227012.17259553
C      -2.56375018     -0.15297218      0.00007423
O      -1.21572450     -0.65013724     -0.00018588
C      -0.25995231      0.27939710     -0.00026393
O      -0.46566343      1.47096981     -0.00003652
C       1.14621868     -0.29787791     -0.00009512
C       2.23725694      0.73713296      0.00014137
N       1.28593519     -1.55741455     -0.00008018
H      -2.74723189      0.45273151     -0.88631648
H      -3.19764052     -1.03423316      0.00019454
H      -2.74687206      0.45272200      0.88654638
H       3.21615478      0.26000370      0.00040713
H       2.14960496      1.38610554     -0.87243041
H       2.14915616      1.38618235      0.87260768
H       2.27584119     -1.80956193      0.00014219
