18
b3lypvtz=-181915.58842291
C      -2.50340654      0.07357116     -0.02774787
C      -1.00198959      0.08350615     -0.01145624
C      -0.28993307      1.20502311      0.08384215
C       1.21106460      1.24570844      0.06173254
N       1.76711056     -0.02776058     -0.38566016
C       1.15608250     -1.16600958      0.29277078
C      -0.31317593     -1.25633551     -0.11213120
H      -2.91510178      1.08161140      0.02347092
H      -2.90291919     -0.50304931      0.81227332
H      -2.88140405     -0.40157144     -0.93850277
H      -0.79459376      2.16052121      0.18198531
H       1.54329531      2.03044402     -0.62453124
H       1.57165681      1.54152056      1.06463729
H       2.77065687     -0.03376885     -0.26129366
H       1.68781910     -2.07327651      0.00185638
H       1.21886883     -1.08740729      1.39164479
H      -0.39436065     -1.63144743     -1.13816285
H      -0.82836702     -1.98373456      0.52390949
