13
b3lypvtz=-213775.39189495
N       2.53517791     -0.36493821     -0.32361354
C       1.27257578     -0.20433778     -0.23982227
C       0.40518833      0.94650248     -0.53514943
C      -0.83609046      0.66181787     -0.12994109
O      -1.91693263      1.46604719     -0.21863499
C      -0.90774453     -0.72045178      0.46417902
N       0.42695852     -1.22031820      0.21240518
H       2.97899020      0.47379063     -0.68524110
H       0.74355904      1.86292492     -0.98967033
H      -2.69464568      1.02199384      0.13473928
H      -1.15631175     -0.66851101      1.53355248
H      -1.68108239     -1.32602087     -0.02543811
H       0.83045766     -1.92839909      0.80253490
