12
b3lypvtz=-252114.81564296
O       3.35589004      0.08132868      0.00017662
C       2.08224237     -0.39910112      0.00004986
N       1.12070373      0.42036816     -0.00005971
N      -0.14769243     -0.06623110     -0.00031030
C      -1.21170682      0.80213790     -0.00004596
C      -2.49135486      0.43856233      0.00011033
F      -2.82586540     -0.88627842      0.00007596
H       3.97071551     -0.65716814      0.00022235
H       1.96990112     -1.48571458     -0.00009843
H      -0.31900028     -1.06220947     -0.00015625
H      -0.94773295      1.84833071     -0.00000617
H      -3.33663603      1.10449205      0.00025371
