15
b3lypvtz=-191136.33011457
C       0.98788895      1.35639145     -0.46048499
C      -0.35506843      0.68132658     -0.03516948
C      -1.59641792     -0.23069936     -0.34884025
N      -0.91358568     -1.37128557      0.41802249
C       0.37057971     -0.61757807      0.06384336
C       1.61506168      0.19191196      0.44344451
N       2.54839987      0.07975273      1.27020449
H       1.17992869      2.37733830     -0.13550301
H       1.25910636      1.23509242     -1.50816110
H      -0.53381352      1.02936351      0.98679722
H      -1.69311656     -0.51942370     -1.39413292
H      -2.55937702      0.07893896      0.05366436
H      -1.11364635     -1.23310736      1.40728729
H       0.58808986     -0.96853225     -0.95246504
H       3.14787037      0.90551039      1.27729306
