12
b3lypvtz=-200534.58974971
C       0.00908655      1.29190238     -1.13934571
C      -0.00112637      0.30115773      0.04361719
N      -0.01619321      1.05001997      1.30112140
C       1.17468014     -0.60382580     -0.06790917
N       2.12605171     -1.24898742     -0.11397272
C      -1.22664296     -0.52346835     -0.01691523
N      -2.18610841     -1.15298406     -0.07327213
H      -0.85700265      1.94430858     -1.05519823
H      -0.01894666      0.76159323     -2.08857895
H       0.91933593      1.88948723     -1.09810939
H       0.80915198      1.63533503      1.36177935
H      -0.01589303      0.42573651      2.09954258
