17
b3lypvtz=-192001.29075471
C      -0.96470277     -1.08281810     -0.08098416
C      -1.60684253      0.25267573      0.28628479
C      -0.86532260      1.39515804     -0.41133309
N       0.58869496      1.33223752     -0.35645340
C       1.17243617      0.25513025     -0.01500351
C       0.50687619     -1.06346488      0.33262772
N       2.55227928      0.25344721      0.13378195
H      -1.04178548     -1.23833377     -1.16126745
H      -1.47946924     -1.91864972      0.39580921
H      -1.55919573      0.39087988      1.37110728
H      -2.66315623      0.27207311      0.00895294
H      -1.15857292      1.43300093     -1.46781901
H      -1.17166117      2.35515728      0.01250071
H       1.05823981     -1.88207701     -0.13899556
H       0.60422909     -1.21580255      1.41193725
H       3.02729319     -0.61064607     -0.07124290
H       3.00065995      1.07203214     -0.24990276
