14
b3lypvtz=-201271.94055269
C       3.52070933     -0.25367710     -0.00000018
C       2.33700992      0.35916281     -0.00000395
N       1.13272138     -0.33454111     -0.00001251
C       0.05291393      0.34263704     -0.00001923
N      -1.16375961     -0.27901524     -0.00001650
N      -2.30243571      0.43966718     -0.00000360
C      -3.41315034     -0.18327096      0.00001114
H       3.58505782     -1.33309627      0.00000365
H       4.43853758      0.31573540     -0.00000500
H       2.28997787      1.45078307     -0.00000530
H      -0.01932019      1.43236925     -0.00000285
H      -1.18019750     -1.29490936     -0.00001177
H      -3.49242319     -1.27198583      0.00000430
H      -4.31873930      0.40631412      0.00000780
