16
b3lypvtz=-202058.53403211
C      -2.56384633     -0.92813772      0.01120154
N      -1.12870184     -0.73380378      0.02211256
C      -0.58148733      0.54650061      0.01814491
N      -1.24033546      1.64201008     -0.10618228
C       0.87963072      0.62298406      0.12893322
C       1.73024271     -0.38664563     -0.10782787
N       3.10192971     -0.34646782      0.05392951
H      -3.07365952     -0.44600208      0.85484244
H      -2.99437866     -0.53633657     -0.91194261
H      -2.77367675     -1.99585832      0.04739243
H      -0.61479384     -1.40299159      0.57073429
H      -2.24326878      1.47915774     -0.14947922
H       1.25357318      1.60930433      0.37309278
H       1.35970363     -1.35386827     -0.42741146
H       3.63864625     -0.96252916     -0.53378704
H       3.51390331      0.56956013      0.14248679
