12
b3lypvtz=-247132.44244708
C       2.35596378      0.13206719      0.47229347
N       1.18554477     -0.00713662     -0.36531264
N      -0.00349988      0.02055506      0.15548185
N      -0.93337106     -0.10871731     -0.69471455
C      -2.20267314     -0.07015400     -0.07092077
O      -2.47213583      0.07067623      1.09384970
O      -3.13635230     -0.22439966     -1.03716648
H       2.99736076     -0.74744079      0.39261473
H       2.01602060      0.23584762      1.49898254
H       2.93182400      1.01626895      0.19274668
H       1.25212478     -0.12355726     -1.37372577
H      -3.99080648     -0.19400942     -0.58576784
