15
b3lypvtz=-216904.50000244
C       0.54071192     -0.99488884     -0.76491749
C       1.16117363      0.25720053     -0.11981356
C       0.24721541      1.45698198     -0.29806949
O      -1.12190428      1.04504025     -0.30566196
C      -1.40932367     -0.07950711      0.52922738
C      -0.22244712     -1.02617947      0.57120811
O       0.87946593     -0.29983119      1.20417080
H       1.25643986     -1.80880652     -0.84362653
H      -0.02850718     -0.87667066     -1.68451256
H       2.21581189      0.49019104     -0.26334981
H       0.43524379      2.16895391      0.51419908
H       0.41974024      1.95669459     -1.25377061
H      -1.64092155      0.24313545      1.55113924
H      -2.29225231     -0.55869995      0.10063945
H      -0.44044657     -1.97361400      1.06313796
