15
b3lypvtz=-214478.69670079
O       2.72115513     -0.22711485     -0.25887959
N       2.33129435      0.64287114      0.78275744
C       1.07812375      0.59371775      0.98877623
C       0.07192802     -0.24659775      0.27346399
C      -0.60273138      0.32365108     -1.00936567
C      -1.92659459     -0.20406348     -0.41621169
N      -1.26691946     -0.28082541      0.91132089
H       3.67581013     -0.11005664     -0.27712729
H       0.71686270      1.25463410      1.77001106
H       0.49786133     -1.23375328      0.07004142
H      -0.26713829     -0.08835820     -1.95673193
H      -0.56219266      1.41032613     -1.04720741
H      -2.20560572     -1.17735610     -0.83405366
H      -2.79472420      0.45535711     -0.45034735
H      -1.46702911     -1.11243161      1.45365355
