14
b3lypvtz=-203703.9102205
N       2.08221287      1.27893998     -0.17839218
C       0.99667933      0.63125232     -0.15344024
C       0.72452924     -0.85797132     -0.16970322
C      -0.68991114     -1.00458394      0.43195594
C      -1.43177722      0.27123621     -0.00077831
C      -0.35681516      1.34689502     -0.07088248
O      -0.52279432      2.53647525     -0.06093038
H       2.88777712      0.65051883     -0.22301587
H       0.72829998     -1.20310862     -1.20913233
H       1.48821739     -1.42445553      0.36285067
H      -0.62258860     -1.04047136      1.52097171
H      -1.18865225     -1.91599027      0.10734487
H      -2.24890139      0.57301204      0.65171099
H      -1.84647585      0.15815138     -1.00855917
