17
b3lypvtz=-215288.98314955
C       2.07861856      0.64070161      0.98448516
C       1.20522321      0.14415262     -0.17073663
O       1.91257678     -0.85515890     -0.93271095
C      -0.07294863     -0.47240348      0.29091957
C      -1.31605886     -0.03237344      0.03042120
N      -2.46988242     -0.77298845      0.32028505
N      -1.65115545      1.19798900     -0.54585772
H       3.02290780      1.05459475      0.61720981
H       1.56609155      1.42110996      1.54891969
H       2.30614967     -0.18265189      1.66350331
H       0.99250947      0.99733190     -0.83063718
H       2.80243538     -0.52843726     -1.10252063
H       0.03353017     -1.38481121      0.86631437
H      -3.17401014     -0.23473492      0.80809655
H      -2.27723112     -1.64121859      0.79582208
H      -2.35842112      1.10975674     -1.26341297
H      -0.86146587      1.73203856     -0.87221373
