18
b3lypvtz=-205217.51119523
C       0.26411127      2.19066901     -0.21208678
C       0.32703513      0.68963816     -0.10368387
C       1.48146518      0.07782802      0.20250216
N       1.74882902     -1.28660856      0.27729059
C      -0.98645337     -0.03485413     -0.32452827
C      -1.79573825     -0.20285391      0.95863910
O      -0.83105326     -1.35675362     -0.87350536
H       1.23100401      2.64634495      0.00286455
H      -0.04149698      2.51444989     -1.21307780
H      -0.46194362      2.62002986      0.48672881
H       2.36241283      0.69161104      0.35910570
H       2.46836271     -1.54453359      0.93222658
H       0.94012790     -1.88795484      0.30093969
H      -1.58588539      0.56122412     -1.02601390
H      -2.74749571     -0.69161525      0.74615377
H      -1.24389676     -0.80959012      1.67760146
H      -1.99749099      0.76756791      1.41276189
H      -0.29319571     -1.28291695     -1.66911132
