14
b3lypvtz=-222160.39366559
C       2.61125671     -0.81573219     -0.00085859
C       1.47245625      0.18055470     -0.00007968
N       1.56621965      1.44876506      0.01546574
N       0.24053419     -0.45084867     -0.03117816
N      -0.93328311      0.23704629     -0.04230897
N      -1.91100566     -0.52458379      0.03564028
N      -3.10660283      0.13745972     -0.08125898
H       3.56391786     -0.29540304      0.05871882
H       2.60014092     -1.41829661     -0.91166548
H       2.53685032     -1.49802010      0.84909590
H       2.54404546      1.72289575      0.02147770
H       0.17385253     -1.45774882      0.03527686
H      -3.03626521      1.12942651      0.12983910
H      -3.81413808     -0.34089480      0.45533847
