13
b3lypvtz=-213740.75088705
C      -0.74162705     -0.78299367     -0.50478797
C      -1.74007148      0.13157953      0.24547634
N      -0.96490733      1.17670397      0.93210113
C       0.27670990      1.00620123      0.70219141
C       0.58539194     -0.14951186     -0.15859809
N       1.70665653     -0.58951182     -0.57070435
O       2.78052077      0.18835930     -0.09955132
H      -0.90749789     -0.78618883     -1.58187800
H      -0.78603212     -1.81731753     -0.16482437
H      -2.45408942      0.61793972     -0.42149299
H      -2.32713520     -0.40448291      0.99334690
H       1.02994538      1.66516050      1.11313480
H       3.54213597     -0.25593763     -0.48441349
