10
b3lypvtz=-223057.40442113017
C      -0.66714538     -0.90539256     -0.04517018
C      -1.28295569      0.33525471      0.30044816
N      -0.62819859      1.41186846      0.68472100
N      -0.09098297      2.33177039      1.02869451
O       1.70256483      0.65242584     -0.65021952
C       1.64639538     -0.43285703     -0.10625815
N       0.56119767     -1.28545744     -0.10705526
H      -1.41354216     -1.66995917     -0.25840524
H      -2.35574795      0.44340205      0.31614832
H       2.52841486     -0.88105523      0.37765249
