14
b3lypvtz=-226978.94706703
N       1.83263849      1.13995561      1.02654644
C       0.96898623      0.43922605      0.43931662
C       0.84551657     -0.97278520     -0.12498240
C      -0.44415829     -0.51486600     -0.87524648
O      -1.60767894     -1.27455947     -0.70263052
C      -0.40969115      0.84465486     -0.08270718
O      -1.39022913      0.87638606      0.94806706
H       2.68179857      0.60267757      1.21360837
H       0.61003960     -1.70658201      0.64953414
H       1.67990067     -1.34257645     -0.72129554
H      -0.27902505     -0.38330720     -1.94430759
H      -1.99745734     -0.98642682      0.13534515
H      -0.42539356      1.75821211     -0.67819059
H      -2.06524667      1.51979090      0.71684252
