14
b3lypvtz=-231994.86155417
C      -1.55226549      1.45707869     -0.39229683
C      -1.14219008      0.24050095     -0.02974478
C      -2.08423688     -0.82641581      0.46201481
C       0.28236485     -0.13182868     -0.09408047
O       0.52313732     -1.39666463     -0.55494352
C       1.26577726      0.67116030      0.31176958
F       2.55645267      0.23761424      0.21489510
H      -2.58980166      1.74829759     -0.29352472
H      -0.87000891      2.18809563     -0.80304040
H      -3.10563179     -0.45172007      0.50303236
H      -2.05725409     -1.69649803     -0.19563577
H      -1.79776826     -1.17462097      1.45730795
H       1.47112075     -1.56877801     -0.49139727
H       1.15956131      1.64896379      0.74693695
