15
b3lypvtz=-214492.04281701
C       3.12609101     -0.67665671      0.00002306
N       2.33510181      0.31045438      0.00002394
O       0.99340055     -0.11974002     -0.00001736
C       0.12609276      0.95291552     -0.00002176
N      -1.11847321      0.82889303     -0.00003043
C      -1.72629070     -0.50093160     -0.00006565
C      -3.24436070     -0.39080398      0.00006397
H       4.18248073     -0.44323765      0.00000641
H       2.78964400     -1.70964741     -0.00006156
H       0.63373502      1.91164875      0.00004087
H      -1.38783383     -1.06477928     -0.87590795
H      -1.38769034     -1.06490530      0.87564024
H      -3.58987048      0.15072446      0.88140621
H      -3.70526041     -1.38028427      0.00002858
H      -3.59001121      0.15085508     -0.88114256
