16
b3lypvtz=-204458.36496764
C      -2.01691661     -0.59022401     -0.06005175
C      -0.89143773      0.41484574     -0.22145776
C       0.09677699      0.55727239      0.97517661
N       1.17959715      0.16404495      0.07475583
C       2.48671144     -0.04623560      0.31540551
O       3.02756124      0.11536354      1.39290949
C       0.32089168     -0.02967108     -1.09672772
H      -2.55589322     -0.73408300     -0.99875291
H      -1.63305335     -1.56180360      0.25917158
H      -2.73761089     -0.25422096      0.68809524
H      -1.28664703      1.37854413     -0.53967433
H      -0.06202599     -0.14692609      1.79508833
H       0.21221623      1.55957840      1.38980842
H       3.02995034     -0.38355995     -0.58784628
H       0.55831626      0.62151918     -1.94022456
H       0.27166350     -1.06444404     -1.44577571
