10
b3lypvtz=-223009.92574284
C      -2.31059648      0.44486249     -1.28956644
N      -1.61377563     -0.50657267     -0.83140236
O      -0.28088793     -0.06920019     -0.64901230
N       0.44892119     -1.11366998     -0.15436344
C       1.67392006     -0.79808590      0.03988905
C       2.26412069      0.47861396     -0.21226842
N       2.78074816      1.49138518     -0.40074757
H      -3.35371413      0.22335356     -1.46937035
H      -1.91288417      1.43392302     -1.49913641
H       2.30424825     -1.58460949      0.43157824
