16
b3lypvtz=-181115.8495048
C       1.28552747      1.58870081     -0.87256561
C       0.77656855      0.50243487     -0.30971316
C       1.06676611     -0.23170620      0.99940753
C       0.08429872     -1.32870097      0.55940796
C      -0.17722409     -0.54434809     -0.76556331
C      -1.26213048     -0.77510472      0.28540576
N      -1.90787139      0.21465800      1.10850193
H       2.01766378      2.20006678     -0.36024236
H       1.00263882      1.89024046     -1.87346933
H       2.09653187     -0.58815504      1.03046991
H       0.85268455      0.27935034      1.94114936
H       0.26312902     -2.38743005      0.68227575
H      -0.28658063     -0.91105736     -1.77739892
H      -1.96585504     -1.53295031     -0.04116195
H      -1.24633869      0.90348295      1.44413630
H      -2.59980857      0.72051852      0.56708352
