16
b3lypvtz=-204421.90063056
C      -2.00981730      0.01758380     -0.42970504
C      -0.68223582     -0.66934116     -0.89935349
C       0.06470296      0.14476223      0.17306805
C      -1.18692163      0.79860203      0.59627994
O      -0.19051845      1.53173752     -0.13185719
C       1.34622810     -0.17437876      0.88105494
N       2.55598002     -0.05027439      0.06379716
H      -2.70617849     -0.68699502      0.02342800
H      -2.53345720      0.63086194     -1.16195311
H      -0.36726085     -0.47955582     -1.92459926
H      -0.67746789     -1.74193889     -0.70597444
H      -1.49024528      1.20280900      1.55294244
H       1.29982908     -1.19412638      1.27172831
H       1.44273276      0.49293220      1.74009323
H       2.60324415      0.87973563     -0.33728347
H       2.53138586     -0.70241393     -0.71166608
