19
b3lypvtz=-221043.21077566
C       2.89606316     -0.48327870     -0.42661971
C       1.60892047     -0.69538818      0.36341826
N       0.50001199      0.14556557     -0.09106950
C       0.72851142      1.55846560      0.18381414
C      -0.79028097     -0.30550311      0.41997894
C      -1.92315127      0.06847835     -0.52381833
F      -3.13144356     -0.37861237      0.01460478
H       3.64393767     -1.21619639     -0.11987156
H       3.32632025      0.50504052     -0.26480267
H       2.71128436     -0.60466604     -1.49475901
H       1.80861680     -0.54581097      1.43987892
H       1.29643506     -1.73397223      0.24548702
H      -0.10872063      2.15504020     -0.17478972
H       0.85327566      1.76203186      1.26159092
H       1.61892205      1.90984276     -0.33404216
H      -0.77681908     -1.39274544      0.50396462
H      -1.01121748      0.09065497      1.42443366
H      -1.78532544     -0.40724105     -1.49562883
H      -2.00872344      1.14693167     -0.66425276
