16
b3lypvtz=-225341.32170624
C       2.13362718     -1.07829696      0.10895660
N       1.30527682      0.08104000     -0.17280587
C      -0.05252290      0.06910344     -0.05212247
N      -0.82158845      1.09658593      0.03172111
N      -0.04808644      2.32620541      0.05399913
O      -0.57259411     -1.17331217     -0.06296248
C      -1.99706685     -1.27562784      0.02878578
H       2.09971673     -1.38973559      1.15855540
H       1.82284631     -1.92144516     -0.50408008
H       3.16379931     -0.83342342     -0.14584146
H       1.67067647      0.99712903      0.04993996
H      -0.11112856      2.72785373     -0.87933491
H      -0.57782246      2.95739845      0.64445800
H      -2.47566996     -0.76571723     -0.80617235
H      -2.21041773     -2.34122134      0.00096658
H      -2.35718234     -0.83720627      0.95856404
