19
b3lypvtz=-171812.08725552
C      -2.45038301     -0.00042679      0.00002673
C      -0.94666254      0.00042529     -0.00008834
C       0.00000010      0.61679582     -1.07182539
C       0.94666255      0.00042469     -0.00008853
C       2.45038301     -0.00042830      0.00002627
C       0.00000028      0.62067029      1.06938896
C      -0.00000037     -1.23574206      0.00215250
H      -2.84394532      1.01863426     -0.00196044
H      -2.84267532     -0.50871694      0.88388234
H      -2.84287211     -0.51226322     -0.88168931
H      -0.00000012      0.14120272     -2.05465640
H       0.00000038      1.70552490     -1.15475379
H       2.84394593      1.01863253     -0.00195638
H       2.84287164     -0.51226099     -0.88169215
H       2.84267518     -0.50872266      0.88387951
H       0.00000024      0.14856516      2.05389606
H       0.00000072      1.70969734      1.14838625
H      -0.00000074     -1.85209832     -0.89910111
H      -0.00000049     -1.84882173      0.90563720
