14
b3lypvtz=-232003.68957708
C      -2.66785444     -0.15975438      0.11778934
C      -1.33128277      0.42329889     -0.21467581
C      -0.15513519     -0.14096852      0.07908397
C       1.13351465      0.43153171     -0.24800658
C       2.30427673     -0.13121477      0.04484647
O       3.51321179      0.37776914     -0.24716177
F       2.39949773     -1.31317257      0.68809662
H      -3.24832757      0.51254105      0.75705107
H      -3.26674093     -0.32296291     -0.78345674
H      -2.57038466     -1.11519214      0.63480249
H      -1.33686971      1.37802506     -0.73442297
H      -0.14649883     -1.09413475      0.59825657
H       1.17950697      1.38009056     -0.76567266
H       4.19308625     -0.22585635      0.07347001
