17
b3lypvtz=-194373.62491535
C       3.38560926     -0.52390193     -0.36510305
C       2.43472213      0.04417867      0.36565165
C       0.96920343     -0.26011755      0.27329085
C       0.13635285      0.97522704     -0.09592410
C      -1.35064114      0.77366610     -0.16962793
C      -1.99795005     -0.36540760      0.04138114
O      -3.36603203     -0.44476194     -0.05231668
H       3.15577221     -1.28200412     -1.10527369
H       4.42768722     -0.25596153     -0.24969765
H       2.71494439      0.80124520      1.09430076
H       0.80694808     -1.05428648     -0.45978048
H       0.62297282     -0.64223310      1.24034330
H       0.34910543      1.77240193      0.62636427
H       0.49281040      1.36173058     -1.05731097
H      -1.94502263      1.64575889     -0.42321586
H      -1.49363275     -1.28995260      0.29716002
H      -3.64628164     -1.34450855      0.12997042
