14
b3lypvtz=-224584.88255452
N       2.81369033     -0.28928256      0.02009180
N       1.51511953     -0.86066613     -0.01474454
C       0.56881389      0.01254610     -0.05889128
N       0.80067632      1.38480126     -0.01544288
C      -0.79932445     -0.48850538     -0.10070817
C      -1.89772399      0.24779825      0.08637797
O      -3.17920883     -0.20201093      0.05435658
H       2.93995258      0.24820368      0.87736785
H       3.46233719     -1.06358682      0.05987962
H       1.72427433      1.61412198     -0.36342702
H       0.08613784      1.94231978     -0.45748475
H      -0.87642689     -1.55752483     -0.26158318
H      -1.87470494      1.30577651      0.31117176
H      -3.18431092     -1.14763091     -0.13607377
