14
b3lypvtz=-231975.27391497
C       2.43672225      1.62011292     -0.48473946
C       1.43584162      0.99054887     -0.69139636
C       0.20698645      0.22756869     -0.86963822
C      -0.25886187     -0.41081838      0.45146062
O      -0.52351623      0.56243814      1.44814063
C      -1.56343180     -1.17029118      0.27862184
F      -1.38418891     -2.20355487     -0.63938696
H       3.32830235      2.17487928     -0.32961298
H       0.35377624     -0.55875221     -1.61331766
H      -0.58320147      0.88682144     -1.24076953
H       0.51174831     -1.11429405      0.78854877
H       0.26361424      1.10967273      1.54960917
H      -1.87469802     -1.60366522      1.22905761
H      -2.34899316     -0.51066615     -0.09547747
