15
b3lypvtz=-191211.15861758
C      -3.22247743     -0.63664892      0.00002731
N      -2.19337032      0.39415043      0.00015846
C      -0.97887417      0.01841838     -0.00008189
C       0.08713792      1.00910704      0.00017064
C       1.41133376      0.77174750      0.00009755
C       2.06740733     -0.53304435     -0.00023251
N       3.32473711     -0.74062771     -0.00030079
H      -3.14803129     -1.27539352      0.88561216
H      -3.14607621     -1.27751527     -0.88386279
H      -4.20542986     -0.17008294     -0.00151979
H      -0.70251903     -1.04227669     -0.00042311
H      -0.26665130      2.03349906      0.00043838
H       2.08384606      1.62465084      0.00030376
H       1.43042192     -1.41670591     -0.00043420
H       3.83683450      0.14555205     -0.00009019
