18
b3lypvtz=-181895.72427166
C       2.15842837      0.17518525     -0.02101510
C       0.66290655      0.01080320     -0.00705101
C      -0.11662966     -0.86028184     -1.02811587
C      -1.24615965     -0.70683934      0.03007838
C      -1.49916414      0.80430060     -0.04455687
N      -0.08478230      1.29177623     -0.12132904
C      -0.11527339     -0.77695237      1.09374568
H       2.49708707      0.76051277      0.83837265
H       2.47568915      0.69609856     -0.92602155
H       2.65938871     -0.79300956      0.01761248
H       0.26723431     -1.87691834     -1.09033799
H      -0.27473704     -0.43870839     -2.02078365
H      -2.11309427     -1.36255966      0.05592658
H      -2.06044246      1.09392765     -0.93521535
H      -2.02613189      1.18617870      0.83271905
H       0.12558413      1.87864422      0.67871482
H       0.25689260     -1.78959237      1.24478040
H      -0.27533209     -0.28068330      2.05367538
