17
b3lypvtz=-215266.96758207
N       2.01260784     -1.14740125      0.08036402
C       0.90930198     -0.30832064     -0.36947513
C       1.15613896      1.21420584     -0.31756773
N      -0.17277612      1.38559061      0.32687471
C      -0.21270251     -0.06463503      0.66984253
C      -1.58583906     -0.67756511      0.44565976
O      -2.14045860     -0.26603517     -0.79022184
H       2.75777621     -1.14334979     -0.60860845
H       1.70826336     -2.11289117      0.15400997
H       0.47694233     -0.60364770     -1.33075628
H       2.00061146      1.44492536      0.33764015
H       1.26791491      1.74680146     -1.26335670
H      -0.19779690      2.02319337      1.11263853
H       0.15439768     -0.29366357      1.67610286
H      -1.51600724     -1.76864651      0.43095083
H      -2.24635236     -0.40291173      1.28090699
H      -1.89755695      0.66903402     -0.87133121
