16
b3lypvtz=-204439.41755753
N      -2.48923800      0.88411888      0.15815300
C      -1.16919819      0.43261100     -0.20400982
C      -0.99796460     -0.88559687     -0.89434466
C      -0.43671923     -0.68664523      0.50062762
C       1.05170500     -0.63195565      0.81551065
C       1.91753249     -0.04576707     -0.27094041
O       2.56805813      0.96179547     -0.15563307
H      -2.47054791      1.41202820      1.02321856
H      -3.12078419      0.10413214      0.29129382
H      -0.54734937      1.24027475     -0.57454955
H      -0.33142452     -0.94425135     -1.74290393
H      -1.87138421     -1.51857856     -0.98696532
H      -1.00985725     -1.17386964      1.28146246
H       1.41423093     -1.65437231      0.98338608
H       1.22541496     -0.05832879      1.72770858
H       1.94552297     -0.61986297     -1.22024001
