15
b3lypvtz=-191230.52645904
C       2.01809203     -0.12504752     -0.27604057
C       0.56300213      0.15591532     -0.10294268
C      -0.07119805      1.34755891     -0.16723140
N      -1.41096019      1.29375772      0.16908204
C      -1.77774494     -0.12378960      0.29290391
C      -0.44010631     -0.85483208      0.23272215
N      -0.34047670     -2.10591273      0.46484140
H       2.19104261     -0.86320271     -1.06421919
H       2.56911526      0.77796487     -0.53898889
H       2.46120347     -0.52939420      0.63936103
H       0.36926201      2.30584478     -0.40823405
H      -2.04331206      1.90382550     -0.32408873
H      -2.41802825     -0.44377218     -0.53293079
H      -2.29914490     -0.32684780      1.22782527
H       0.62925390     -2.41206828      0.38794047
