16
b3lypvtz=-204442.80659187
C      -1.69539424      1.18475878      0.38796520
C      -1.28797164     -0.23026313      0.05239659
O      -2.08165834     -1.14701614      0.03634726
C       0.14816427     -0.49880916     -0.28426894
C       0.95579537      0.38598716     -1.18896582
N       1.18777442      0.39074600      0.23557037
C       2.40553342     -0.25408112      0.71025292
H      -0.98593394      1.63747722      1.07990400
H      -1.69264703      1.79659683     -0.51809652
H      -2.70016445      1.17880913      0.80231660
H       0.37122979     -1.56003294     -0.33772134
H       0.51994779      1.28465605     -1.60733517
H       1.67296832     -0.11861004     -1.82978919
H       3.22167010      0.46883140      0.68597140
H       2.26279941     -0.57692368      1.74156598
H       2.69451374     -1.12638537      0.10756366
