11
b3lypvtz=-264609.36919581
O      -2.56387699     -0.88503156     -0.00170915
C      -1.20552375     -0.82792433     -0.10368435
C      -0.50424402      0.31033337     -0.04847411
O      -1.18570386      1.49217512      0.13696452
N       0.86456762      0.45913928     -0.24656215
C       1.68523922     -0.35869556      0.22099475
F       2.98584895     -0.22744426     -0.05277858
H      -2.89261125      0.01076691      0.14807428
H      -0.74367364     -1.78524107     -0.28194196
H      -0.60132865      2.21213481     -0.12709185
H       1.49194736     -1.21850672      0.85853359
