17
b3lypvtz=-191982.04699697
C       3.21589446     -0.28761775      0.00004340
C       1.72741935     -0.41751462      0.00000989
C       0.87219179      0.60752514      0.00002857
C      -0.59807360      0.51710554      0.00003756
N      -1.35919383      1.54233273      0.00006316
C      -1.25127478     -0.86170673     -0.00002646
N      -2.70417463     -0.89584259      0.00005013
H       3.64981537     -0.77853946     -0.87564510
H       3.64978622     -0.77860111      0.87571223
H       3.53128999      0.75567246      0.00008562
H       1.34220554     -1.43190157     -0.00003073
H       1.26967684      1.62038418      0.00007679
H      -0.80957486      2.40261111      0.00008236
H      -0.88822530     -1.41473221     -0.87140933
H      -0.88813157     -1.41484411      0.87124430
H      -3.04518852     -0.37448502      0.80062170
H      -3.04527246     -0.37439500     -0.80042707
