13
b3lypvtz=-216142.86147665
O       1.56808369     -0.64560214      1.35514655
C       0.55015010     -0.84113730      0.37757373
C       0.82793379     -0.13227630     -0.93132271
C      -0.10264184      0.78116804     -1.21423291
C      -1.17755307      0.76674703     -0.18153371
O      -1.86413280     -0.50914280     -0.09578995
C      -0.79268917     -0.25023393      0.80760994
H       1.78890003      0.29223525      1.37198520
H       0.47290920     -1.92205042      0.24620938
H       1.68196855     -0.38089052     -1.54629134
H      -0.12193184      1.41691495     -2.08785746
H      -1.79126038      1.63072338      0.03643875
H      -1.03983626     -0.20635523      1.86216453
