17
b3lypvtz=-194364.73538396
C       3.87536740     -0.51003507     -0.00993010
C       2.50797825     -0.00708049      0.00145827
C       1.38273612      0.41494208      0.00992495
C       0.00844639      0.90619689      0.01943612
C      -1.04200939     -0.21739808     -0.02284081
C      -2.46598555      0.32554819      0.00807112
O      -3.45201528     -0.69621668     -0.08879868
H       4.22625687     -0.67711606     -1.03040037
H       4.55892311      0.19679543      0.46509301
H       3.95181408     -1.45778021      0.52708224
H      -0.14947601      1.51954056      0.91268499
H      -0.14242832      1.57348937     -0.83533055
H      -0.88550529     -0.88524482      0.82958221
H      -0.90601631     -0.81697084     -0.92449456
H      -2.63923129      0.97706922     -0.85051428
H      -2.61915667      0.93168095      0.91066699
H      -3.36253210     -1.27973444      0.67101143
