17
b3lypvtz=-194364.27588387
C       3.11912656      0.06820080     -0.25416029
C       1.92841954      0.13434915      0.32843133
O       0.82595327     -0.48027913     -0.17585596
C      -0.42219630     -0.11682601      0.39160292
C      -1.18246110      1.09413023     -0.19993368
C      -2.47997269      0.24788738     -0.10202362
C      -1.59368872     -1.02371864     -0.01033815
H       3.26570215     -0.46344848     -1.18371824
H       3.96909915      0.54329564      0.21080062
H       1.77355619      0.67068373      1.26116425
H      -0.32128533     -0.03739773      1.47867470
H      -1.13747912      2.04069058      0.33698071
H      -0.88376356      1.25274250     -1.23604757
H      -3.02353547      0.43625082      0.82330469
H      -3.17835275      0.30877414     -0.93387354
H      -1.40769938     -1.45281323     -0.99459836
H      -1.88327344     -1.81623272      0.67772116
