16
b3lypvtz=-181130.35689632
C       3.18984397      0.21116129     -0.04303032
C       1.73806077      0.19625021     -0.15962004
C       0.54092334      0.19350612     -0.26855696
C      -0.91898091      0.17843366     -0.37785684
C      -1.44092739     -1.18669971     -0.87576167
C      -1.54744020      0.51821354      0.95791335
N      -2.41384356      1.43259621      1.06113581
H       3.51078297      0.83366016      0.79463726
H       3.65104534      0.60965421     -0.94897725
H       3.58441194     -0.79417120      0.11748047
H      -1.23895100      0.95441601     -1.07723535
H      -1.19283241     -1.97926742     -0.16847146
H      -2.52374476     -1.15175277     -0.99687942
H      -0.98730107     -1.43624419     -1.83425289
H      -1.20277279     -0.09601437      1.79850216
H      -2.74827425      1.51625824      2.02097316
