14
b3lypvtz=-201235.510258
C      -2.56070676      0.00259965     -0.04123868
C      -1.44359602     -0.70937441      0.05126009
N      -0.12594421     -0.20376590      0.03283366
N       0.82221988     -1.17391142      0.10641897
C       2.06733421     -1.00677650     -0.11827467
N      -0.01698219      1.13951231     -0.13903152
C       1.03392819      1.81312988      0.12099448
H      -3.50888902     -0.51292349     -0.02413559
H      -2.55596522      1.07611283     -0.14261509
H      -1.44124362     -1.78302358      0.15574988
H       2.66725544     -1.90775115     -0.07953642
H       2.56205399     -0.08533275     -0.39123756
H       1.96311595      1.43306993      0.52260111
H       0.94945239      2.88313260     -0.02752766
