13
b3lypvtz=-237028.18431502
C       2.72894839      1.05845117     -0.43767517
N       1.58486046      0.60466144     -0.73058776
O       0.69947678      0.69088863      0.36157006
C      -0.50882825      0.09529241      0.03492319
O      -1.08756859      0.51225674     -1.12729018
C      -1.11002008     -0.71446743      0.90134422
N      -2.43110758     -1.17485033      0.76443074
H       3.47126420      1.04871822     -1.22445588
H       2.97343788      1.44430555      0.54821868
H      -0.38704068      0.56645784     -1.79168088
H      -0.60657377     -0.94751561      1.82742776
H      -2.78504584     -1.04596942     -0.17374089
H      -2.54180293     -2.13822921      1.04741612
