14
b3lypvtz=-224625.9080697
N      -3.03918454      0.32111045      0.22071566
C      -1.87325861     -0.39265469      0.17347313
N      -0.83551026      0.01302481     -0.43226818
C       0.36009754     -0.79992873     -0.35429781
C       1.61937883     -0.01872826      0.03242503
N       1.48978075      1.32761742     -0.01786086
O       2.64923337     -0.59678679      0.32913724
H      -3.88617458     -0.16738659      0.45042847
H      -3.12980315      1.08706402     -0.42728455
H      -1.90831484     -1.33063192      0.73907171
H       0.28168152     -1.63657755      0.35022076
H       0.57481451     -1.23072758     -1.33786999
H       0.59594476      1.72763900     -0.24797168
H       2.27561068      1.90497341      0.22395707
