12
b3lypvtz=-252152.60028507
C       2.40944793     -0.80178088      0.11824773
C       1.26317108     -0.15541927     -0.08046216
F       1.31342063      1.17343865     -0.37253123
N       0.02669001     -0.74184106     -0.05188040
C      -1.08996557     -0.13732101      0.02469154
N      -2.27379178     -0.82442274     -0.16659531
O      -1.24848590      1.18393033      0.27773198
H       2.39437719     -1.85819441      0.32845351
H       3.34866079     -0.27444270      0.07450541
H      -3.02809567     -0.58913969      0.46193606
H      -2.13524358     -1.81819207     -0.26698411
H      -2.12093613      1.46933886     -0.01923603
