13
b3lypvtz=-239480.58154974
C      -2.18116170      0.78632923     -0.00003168
C      -1.18700906     -0.10016638     -0.00000836
O      -1.32295313     -1.45446826     -0.00000765
C       0.23794432      0.37150955      0.00001271
O       0.55802654      1.53504609      0.00001717
O       1.10630764     -0.64881815     -0.00002059
C       2.49438413     -0.27827282     -0.00004093
H      -1.95146319      1.83916904     -0.00002788
H      -3.21870806      0.47911494     -0.00005401
H      -2.26102915     -1.67478537     -0.00002640
H       2.73254822      0.30780790     -0.88629827
H       2.73258931      0.30775902      0.88623764
H       3.04459114     -1.21416179     -0.00007874
