16
b3lypvtz=-202053.90486335
C       3.16000199     -0.30491514      0.01915116
N       1.86054819      0.32782315      0.03228699
C       0.82623417     -0.38837342     -0.02833389
C      -0.54167762      0.22250235     -0.02145463
N      -0.78349076      1.47559733      0.00129518
N      -1.55188703     -0.70420673     -0.07993586
C      -2.93642092     -0.29510832      0.04969846
H       3.70375318     -0.01806800      0.92149990
H       3.73262591      0.07799779     -0.82800676
H       3.11819078     -1.40013477     -0.04215809
H       0.87984773     -1.48590897     -0.09296123
H       0.10101630      1.97948604     -0.00612450
H      -1.32223894     -1.64792077      0.17818965
H      -3.17470405      0.43776928     -0.71978900
H      -3.57650761     -1.16677632     -0.07552145
H      -3.14066432      0.17080050      1.01831308
