14
b3lypvtz=-203700.71153489
N      -2.19076599     -0.19830888     -1.06677657
C      -1.43252398      0.05988186      0.15704680
C       0.03271349      0.00987315     -0.11987456
C       0.77758803     -0.49695072     -1.13500298
C       2.14718201     -0.23678173     -0.80245846
C       2.13314844      0.40686144      0.38784729
O       0.84885533      0.57160538      0.82065203
H      -3.17490203     -0.30279713     -0.85587923
H      -2.10107151      0.58057045     -1.70862947
H      -1.65786653      1.01992400      0.64248245
H      -1.69423083     -0.71764408      0.88218048
H       0.39231130     -1.00025862     -2.00377148
H       3.01948159     -0.49675247     -1.37749126
H       2.90018069      0.80087735      1.02967497
