16
b3lypvtz=-209460.14654208
C       2.29902610      0.54023539      0.00000070
C       1.18666330     -0.18913085      0.00000248
F       1.32600577     -1.54129849      0.00000257
C      -0.20369800      0.27488421      0.00000109
C      -0.39788718      1.76849337     -0.00000128
C      -1.19945721     -0.62499645      0.00000245
C      -2.67254369     -0.37434744      0.00000147
H       2.25743876      1.61656462     -0.00000084
H       3.26563825      0.05978584     -0.00000037
H       0.06412875      2.22367997      0.87884163
H       0.06413271      2.22367809     -0.87884305
H      -1.44935324      2.04037919     -0.00000370
H      -0.91687016     -1.67040040      0.00000570
H      -3.13701317     -0.83925150      0.87469950
H      -2.94011467      0.67980615     -0.00001842
H      -3.13701733     -0.83928569     -0.87467593
