16
b3lypvtz=-202025.20357148
C      -0.38923474      1.87102586     -0.21857237
C      -0.46006781      0.59182647      0.15339056
C      -1.74405111     -0.09458957      0.54345785
C      -2.23250171     -1.12795758     -0.48222453
N       0.64728021     -0.26434463      0.20541271
N       1.87193009      0.10648210     -0.16385639
N       2.73042900     -0.78430236      0.02044148
H       0.54256489      2.33310274     -0.50445904
H      -1.28832449      2.46732449     -0.24621220
H      -2.50553331      0.67149420      0.68320073
H      -1.61176112     -0.58119545      1.51623014
H      -3.16175782     -1.59007503     -0.14647949
H      -1.50405911     -1.92519645     -0.63731332
H      -2.41581850     -0.65471434     -1.44736753
H       0.56266933     -1.19773737      0.59585992
H       3.61414520     -0.38901308     -0.30461252
