15
b3lypvtz=-193571.3903293
C      -3.39238380      0.32521650      0.29693752
C      -2.29507435     -0.07989372      0.03650264
C      -0.97527596     -0.60505006     -0.28555260
O      -0.00516071      0.43325003     -0.19737319
C       1.28526986     -0.01326650     -0.50048685
C       2.40471834      0.75207358      0.11060336
C       2.11231477     -0.65880708      0.57831966
H      -4.36089425      0.69258659      0.52823914
H      -0.72310477     -1.42109084      0.40307221
H      -0.98682327     -1.02769362     -1.29920568
H       1.40231677     -0.37689769     -1.51864076
H       3.28887086      0.93425143     -0.48373702
H       2.12627886      1.55664080      0.77609886
H       2.79532837     -1.45209691      0.30725253
H       1.65263626     -0.76261150      1.55134118
