15
b3lypvtz=-191238.67882367
C      -0.00709764     -1.21442608      0.31536107
C       0.60667002     -0.26217261      1.35974525
C       0.53240078      1.12989541      0.73531274
N       0.97202806      2.16055746      1.34645885
C      -0.09526078      0.98754196     -0.56791500
C      -0.40306474     -0.30453482     -0.82127126
N      -0.94778431     -0.83922391     -1.95372863
H       0.70031739     -1.97117514     -0.03427229
H      -0.87914839     -1.75380985      0.69730074
H       1.64270034     -0.50874404      1.58973362
H       0.06082485     -0.27092482      2.30280517
H       0.83952560      2.99891291      0.78013153
H      -0.27808213      1.81800594     -1.23648512
H      -1.36831634     -1.75040537     -1.89257677
H      -1.37571271     -0.21949708     -2.62059993
