14
b3lypvtz=-229612.36733117
C      -2.00729039     -0.49483576     -0.62509660
C      -0.75860618      0.09890300     -0.02826575
N       0.36966966     -0.46132359     -0.30551512
C       1.59736149     -0.07779343      0.12795754
C       2.74404258     -0.71051243     -0.11037434
F       1.68270021      1.09148967      0.88147514
N      -0.97430590      1.17383266      0.77819914
H      -2.54613951      0.25060033     -1.21510464
H      -1.74235973     -1.33148517     -1.26265815
H      -2.68004194     -0.84244849      0.16254798
H       3.67477009     -0.32698063      0.27504495
H       2.73392088     -1.61481909     -0.69563363
H      -0.19954906      1.67816547      1.16919582
H      -1.89417219      1.56720746      0.84822764
