19
b3lypvtz=-192724.86185125
C       2.28677468     -0.33767650     -0.63628067
N       1.59485690     -0.21589488      0.63775652
C       0.20219793      0.17693148      0.62588878
C      -0.19110527      1.59566319      0.14764893
C      -1.53891299      0.99659952     -0.33121387
C      -0.87194710     -0.39713053     -0.34832165
N      -1.65878872     -1.52282539      0.13992847
H       3.33228578     -0.58588847     -0.44943124
H       2.27321027      0.61773042     -1.16258741
H       1.87737704     -1.09735755     -1.31820288
H       1.72677210     -1.04787776      1.19617783
H      -0.18110146      0.03233067      1.63825994
H       0.41948489      1.92958279     -0.69139213
H      -0.21327723      2.38457499      0.89745971
H      -2.30117779      1.04085377      0.44686071
H      -1.95692579      1.36821880     -1.26568815
H      -0.42284544     -0.56591027     -1.33647133
H      -1.08101434     -2.35479906      0.20413054
H      -2.40391545     -1.74778523     -0.51118209
