15
b3lypvtz=-214510.32031056
O       3.26497734      0.96505842     -0.58627818
C       2.19775151      0.24664046     -0.18858862
N       1.02268678      0.51129505     -0.55204905
C      -0.05280314     -0.31496660     -0.07231190
C      -1.04957360     -0.85415559     -1.12793648
N      -2.16003864     -0.52802342     -0.19961216
C      -1.27798374      0.41087169      0.53638402
H       2.93242448      1.66737945     -1.16513085
H       2.49872924     -0.56865608      0.47205736
H       0.29356916     -1.11914522      0.58639998
H      -0.97496961     -1.90800438     -1.40195024
H      -1.01417943     -0.23826780     -2.03215791
H      -2.97275263     -0.10700635     -0.63116046
H      -1.31816868      1.44667819      0.18442727
H      -1.38986906      0.39040218      1.62190724
