15
b3lypvtz=-191202.0507882
C      -1.26406575     -0.53190800     -0.85807456
C      -1.06901056     -1.15378309      0.49818101
C      -0.19866313     -0.01711692      0.05787545
C      -0.02043543      1.37865408      0.67464181
N       1.43149527      1.15643256      0.53831530
C       1.29718628     -0.02843242     -0.17202764
N       2.17788912     -0.71575513     -0.76403606
H      -2.13561212      0.08945512     -1.01531553
H      -0.94372525     -1.08764125     -1.72984318
H      -1.80796645     -0.95292167      1.26237900
H      -0.61648421     -2.13500261      0.55349811
H      -0.41403477      2.19011382      0.05732018
H      -0.35350494      1.50198477      1.70648749
H       2.14276679      1.85297147      0.37860693
H       1.77416514     -1.54705071     -1.18800830
