14
b3lypvtz=-226987.80795261
N       0.08007948     -0.07199627      1.51430897
C       0.30599128     -0.02573342      0.09629790
C      -0.29365769      1.14360289     -0.67296977
C      -1.00050356     -0.16107361     -0.73558553
O      -2.15185388     -0.38447975     -0.00688478
C       1.49424565     -0.71379122     -0.43692671
O       2.26719444     -1.34866035      0.24332539
H       0.47026384      0.73928913      1.97849605
H       0.54863233     -0.88777891      1.89606943
H       0.24620461      1.49241026     -1.54364379
H      -0.74369449      1.91982979     -0.06865804
H      -0.96435589     -0.73020493     -1.65554899
H      -1.88149451     -0.32524179      0.92893012
H       1.62294839     -0.64627182     -1.53711025
