14
b3lypvtz=-224564.67228159
N       0.73326069      1.44973267     -0.00000900
C       0.48826918      0.20341313     -0.00000160
C      -0.86794113     -0.40692418      0.00000115
N      -1.90004776      0.33491349     -0.00000434
O      -3.07676508     -0.40140887      0.00000024
C       1.63176627     -0.79929672      0.00000752
N       2.97636356     -0.25880813     -0.00000228
H      -0.13645992      1.98472074     -0.00001298
H      -0.96530641     -1.49196965      0.00000978
H      -3.76168701      0.27636128     -0.00000479
H       1.50812185     -1.45510026      0.86970852
H       1.50811866     -1.45512287     -0.86967566
H       3.08874058      0.35177804      0.80225884
H       3.08874751      0.35173332     -0.80229640
