16
b3lypvtz=-204427.43057663
C      -2.58865382      0.81979251     -0.23008189
C      -1.33069953      0.94042079     -0.64694757
N      -0.19279976      0.44636862      0.00517439
C      -0.19131738     -0.85755191      0.65416548
C       0.61218293     -0.62183798     -0.57860380
C       2.11001639     -0.40753772     -0.54218013
O       2.52729444      0.26863930      0.62690408
H      -3.38970165      1.30048788     -0.77152119
H      -2.84799567      0.26843155      0.66367423
H      -1.09375361      1.51634033     -1.53534665
H       0.30606403     -0.89975787      1.61396851
H      -1.08659880     -1.46091927      0.55661927
H       0.23114506     -1.07554892     -1.48965413
H       2.62318548     -1.37137396     -0.55776658
H       2.41184081      0.14174715     -1.44481908
H       1.89989109      0.99229949      0.76071508
