12
b3lypvtz=-223843.81276016
C      -1.53935201     -0.88528500      0.27208049
N      -1.00507265     -0.08932272     -0.55123098
C       0.11289906      0.67664192     -0.17345010
N       1.27506634      0.22921240      0.15776584
C       1.60850326     -1.10766956      0.05311446
O       2.44934203     -1.64601708      0.73260748
N      -0.12469770      2.00962562     -0.20613079
H      -1.20729693     -0.99392755      1.30706264
H      -2.37348389     -1.49913151     -0.05785046
H       1.09441371     -1.66483495     -0.75528935
H       0.66903920      2.62227288     -0.12900426
H      -0.95936040      2.34843553     -0.64967495
