14
b3lypvtz=-229583.6035268
C      -1.69242320      0.08586060      0.39809926
C      -1.02726953      0.25459880     -0.97805495
C      -0.09661195     -0.87626308     -1.29668801
N       1.17554841     -0.87739771     -1.28093596
N       1.82479683      0.31208012     -1.04807189
C       2.51678159      0.44900289     -0.01405552
F       2.57751364     -0.44526648      0.99010109
H      -0.94814098      0.08363187      1.19493061
H      -2.24717693     -0.85202242      0.45774063
H      -2.39202296      0.90062236      0.58734825
H      -0.48102528      1.19672069     -1.01979694
H      -1.80370874      0.28528159     -1.74761091
H      -0.54040308     -1.83495565     -1.55614039
H       3.13414215      1.31820643      0.16313473
