18
b3lypvtz=-181913.32949548
C       1.75902949     -1.27896233     -0.02087192
C       0.38809077     -0.68825412     -0.02168954
C      -0.77709192     -1.32499021      0.15434381
C      -1.91909657     -0.35883964     -0.04721599
C      -1.18916227      0.99335625      0.04139507
N       0.20422060      0.67866744     -0.31390875
C       1.18605200      1.65567414      0.10846010
H       2.38235169     -0.86765345      0.77679620
H       1.70233027     -2.35678236      0.11802136
H       2.27063219     -1.08070028     -0.96654473
H      -0.88662333     -2.39079383      0.27681442
H      -2.71698290     -0.44243521      0.69202676
H      -2.37968241     -0.49329619     -1.03355826
H      -1.22738048      1.37464126      1.07389103
H      -1.59660687      1.76047893     -0.61769951
H       2.17960889      1.37657533     -0.23832356
H       0.94334440      2.62318415     -0.33280360
H       1.22120548      1.78354211      1.20317612
