14
b3lypvtz=-203691.22805951
C      -1.78230820      0.73576790     -0.67572480
C      -0.99268743     -0.08872722     -0.00069064
C      -1.35459558     -1.50377992      0.34985631
C       0.36639600      0.37155051      0.50327142
O       0.56077032      1.74766942      0.23777731
C       1.45038599     -0.43454315     -0.10287919
N       2.31591095     -1.04225034     -0.55623676
H      -2.75697645      0.40920760     -1.01382182
H      -1.48309546      1.74742616     -0.90380362
H      -2.34368231     -1.75315502     -0.02959562
H      -0.63948540     -2.21608124     -0.06899777
H      -1.35752779     -1.65521514      1.43340839
H       0.40566243      0.17726217      1.58462636
H       1.44063692      2.00322928      0.53295344
