13
b3lypvtz=-190478.43348814
C       2.69441420      0.31879636      0.00002157
C       1.66161454     -0.52343255     -0.00000942
C       0.24750165     -0.17893519     -0.00000299
C      -0.37397463      1.04998142      0.00001438
N      -1.72005870      0.78437214     -0.00006302
H      -2.45822634      1.46681759     -0.00003753
C      -1.86805305     -0.57076737      0.00003429
N      -0.71010829     -1.17739818     -0.00005946
H       2.56750799      1.39457015      0.00011340
H       3.71141663     -0.04735127     -0.00004421
H       1.84382139     -1.59221725     -0.00004425
H       0.00767996      2.05486489     -0.00001806
H      -2.83468734     -1.04705974      0.00006830
