11
b3lypvtz=-236295.70229529115
C      -0.75210584     -0.80198604     -0.06948209
C      -0.28612469      0.64554341      0.06710867
O      -1.11592602      1.53270506      0.18812452
C       1.13039422      0.94610064      0.05133579
N       2.02165580     -0.00267980     -0.08112271
N       2.77434888     -0.83104655     -0.19650683
O      -2.14784755     -0.87448850     -0.03241119
H      -0.31015519     -1.39548380      0.74213434
H      -0.36686849     -1.21278234     -1.01228388
H       1.50551331      1.95224245      0.14653650
H      -2.45288444      0.04187547      0.07471087
