17
b3lypvtz=-217683.94532064
C       2.34376775     -0.93521972      0.29852852
C       1.39352861     -0.45006153     -0.79598226
C       0.27574024      0.48321782     -0.31810009
O       0.92038806      1.66494450      0.19348698
C      -0.62189539     -0.11642862      0.72571194
C      -1.90854691     -0.40987389      0.56061635
O      -2.56695461     -0.22783961     -0.62709124
H       3.15160059     -1.52869962     -0.13226543
H       2.78846158     -0.09267195      0.82729543
H       1.83144983     -1.56302003      1.02953148
H       0.92683011     -1.30203872     -1.29638651
H       1.96029100      0.09315611     -1.55651979
H      -0.32862794      0.75036130     -1.18996489
H       0.23873814      2.23710100      0.55879534
H      -0.19278082     -0.30902039      1.70025401
H      -2.50265658     -0.82486635      1.36752880
H      -3.49558467     -0.44481029     -0.51646764
