15
b3lypvtz=-237815.97278583
C      -2.58123232     -0.65978287      0.41758487
N      -1.65999389      0.09913307     -0.43372285
N      -0.32104838     -0.44767890     -0.30882858
C       0.52059945      0.47357534     -0.02566406
O       0.21542391      1.76295085      0.12810755
C       1.96785004      0.12253734      0.15922173
O       2.21231395     -1.25206718     -0.00686224
H      -2.50809406     -1.73983285      0.25614426
H      -2.36123890     -0.45151964      1.46381010
H      -3.59820279     -0.32826853      0.20611281
H      -1.92088726     -0.06151123     -1.40150648
H      -0.75894864      1.77869317     -0.01725260
H       2.26964510      0.45250752      1.16043293
H       2.55403620      0.70968050     -0.55766976
H       1.35571659     -1.65886760     -0.20727368
