15
b3lypvtz=-214524.20958015
C       2.00258569     -0.25427058      0.28673575
N       0.60405457     -0.37423059      0.70060740
C      -0.36074293      0.27912240     -0.18024894
C      -1.77331679     -0.22583104      0.16732635
O      -1.83448928     -1.62530226      0.03087291
C      -0.29776665      1.75309914     -0.13260464
N      -0.23542855      2.89933059     -0.04430737
H       2.13547383     -0.74435892     -0.67847091
H       2.63089994     -0.76926777      1.01209493
H       2.35003496      0.78208676      0.19848785
H       0.49055005     -0.02057087      1.64430582
H      -0.13873830     -0.03395486     -1.20336550
H      -2.02767942      0.09867851      1.18543690
H      -2.50408225      0.20870006     -0.51384377
H      -1.04135487     -1.97323058      0.46139830
