17
b3lypvtz=-191944.39645364
C      -1.83414284      1.75223391     -0.04377825
C      -1.38329674      0.65508019      0.13622711
C      -0.84102414     -0.68471983      0.39159449
N      -1.06647432     -1.54931522     -0.77196241
C       0.64137140     -0.63836772      0.85585969
N       1.56307204     -0.29571064     -0.22164199
C       1.95171618      1.11005700     -0.30403773
H      -2.23798163      2.71895509     -0.21248687
H      -1.41722588     -1.10215247      1.22381284
H      -0.36850693     -1.31457607     -1.47166892
H      -0.89815665     -2.51384206     -0.50711477
H       0.73288729      0.03964735      1.71610885
H       0.88466299     -1.64354813      1.20823621
H       2.38875367     -0.87282944     -0.16208574
H       2.70649472      1.22688658     -1.08204341
H       1.09325386      1.71984993     -0.57752456
H       2.36082202      1.50602951      0.63753346
