14
b3lypvtz=-201287.99917273
C       2.65411671     -0.68310555      0.40228750
N       1.76558116     -0.49919993     -0.47454200
C       0.64388396      0.32107161     -0.17929194
N       0.71900848      1.59008679     -0.02632753
C      -0.61417928     -0.41693136     -0.15419659
C      -1.78960356      0.20039199      0.06494597
N      -3.01250606     -0.39797329      0.17272065
H       2.59485035     -0.26646220      1.41280593
H       3.53040585     -1.27953773      0.15700526
H       1.68192340      1.90864290     -0.10543030
H      -0.56467505     -1.48540511     -0.31923646
H      -1.78744856      1.27363291      0.21330420
H      -3.11355599     -1.35247335     -0.12980044
H      -3.83224442      0.17176631      0.06540575
