12
b3lypvtz=-226242.97588128
N       1.49891478     -1.90172015      1.42242712
C       1.32870812     -1.10748384      0.60846166
C       1.09189577     -0.11571480     -0.43587842
C      -0.22978711      0.66271544     -0.24582915
O      -0.19490633      1.43285485      0.91793598
C      -1.43464274     -0.26029253     -0.25701898
O      -2.24660187     -0.24703401      0.63070096
H       1.90954978      0.60601170     -0.43105038
H       1.10042399     -0.61406875     -1.40852193
H      -0.33239345      1.31231542     -1.12889880
H      -0.95795231      1.16733673      1.45522555
H      -1.53320864     -0.93492007     -1.12765363
