15
b3lypvtz=-214518.57164598
N      -1.69311072      1.22135796      1.33541088
C      -0.63679388      0.84519317      0.48711108
C      -0.43788232     -0.40981885      0.03813923
N      -1.35650718     -1.45977142      0.33212769
C       0.66074962     -0.81159918     -0.83076452
C       1.81911151     -0.19718623     -1.09135070
O       2.16355803      1.02608480     -0.56966746
H      -1.90246223      0.54067093      2.05448822
H      -1.55913387      2.12847149      1.75454984
H      -0.01335419      1.64903948      0.13063624
H      -2.21740461     -1.13805464      0.74812787
H      -0.96344578     -2.21502514      0.87824982
H       0.52107667     -1.76291056     -1.32915487
H       2.54350013     -0.64255266     -1.76219868
H       3.07209881      1.22610085     -0.80770463
