15
b3lypvtz=-191226.52524528
C       1.62857380      0.42209986      0.12268464
C       0.27622440      0.06098488     -0.49195624
C      -0.09038535     -1.44032398     -0.42262402
N      -1.42561944     -1.55864381      0.18683876
C      -1.83834532     -0.40237987      0.51919675
C      -0.91115977      0.70967045      0.21553046
N      -1.14694599      1.91595387      0.52894857
H       1.79755026      1.50046092      0.10476346
H       2.44480589     -0.04772444     -0.42783981
H       1.68552036      0.09122410      1.16115813
H       0.26110500      0.39378817     -1.53373342
H       0.61210417     -2.01043995      0.19099803
H      -0.11190489     -1.92296243     -1.40114087
H      -2.79721698     -0.24556640      1.00155617
H      -0.38430614      2.53385862      0.24561940
