17
b3lypvtz=-191963.98006423
C       2.61144964     -0.31727128      0.14878883
N       1.60102469      0.13071160     -0.46144100
C       0.36157131      0.26251684      0.25146830
C      -0.41695243      1.59153590      0.09812787
C      -1.73110194      0.77425138      0.02441526
C      -0.88701172     -0.45715243     -0.36845585
N      -1.33584458     -1.75680607      0.06900385
H       2.60138486     -0.59139486      1.21167579
H       3.55045111     -0.44170443     -0.38616405
H       0.45357459     -0.01562954      1.31316307
H      -0.17402697      2.06129844     -0.85405150
H      -0.30936478      2.32348838      0.89645581
H      -2.18091712      0.64241683      1.01041515
H      -2.50502753      1.09663063     -0.66958462
H      -0.74959431     -0.48373098     -1.45039244
H      -0.72387225     -2.49422431     -0.25905666
H      -1.37412757     -1.81398111      1.07998618
