20
b3lypvtz=-182660.75549018
C      -2.73085603      0.02018886     -0.09784322
C      -1.37127207      0.71719714     -0.00359156
C      -0.27383292     -0.20530362      0.50019442
C       0.22782156     -1.36386978     -0.39540759
N       1.60877706     -1.08999300      0.06948602
C       1.21492119      0.26253631      0.55003371
C       1.61238537      1.41296398     -0.36576265
H      -3.50264346      0.70311338     -0.45638212
H      -2.69512053     -0.82756760     -0.78533659
H      -3.04787090     -0.35874731      0.87620257
H      -1.10380267      1.11860604     -0.98453178
H      -1.45311071      1.57828940      0.66742454
H      -0.55494606     -0.59675572      1.47993064
H       0.05815240     -1.16647226     -1.46094259
H      -0.13062035     -2.36969533     -0.16886085
H       2.31910275     -1.09462679     -0.65317297
H       1.58740237      0.46813783      1.55765461
H       1.20354377      2.36307440     -0.01444359
H       1.27174293      1.25641022     -1.39119101
H       2.70038929      1.51304086     -0.38602699
