14
b3lypvtz=-226996.64599684
C      -2.33748141      0.92803503     -0.78844570
N      -0.91626934      0.69162157     -0.58179541
C      -0.52660807     -0.47581460     -0.35915231
O      -1.30783603     -1.57459873     -0.28733671
O       0.77551579     -0.82948969     -0.14955286
C       1.74401424      0.15465795     -0.18214619
C       3.01390091     -0.15391326      0.01752269
H      -2.72187444      0.37432137     -1.64978099
H      -2.49387823      1.99005260     -0.96714268
H      -2.93058775      0.63517037      0.08260081
H      -0.74875036     -2.34057021     -0.10496838
H       1.35674353      1.14302853     -0.37861075
H       3.33370774     -1.16832680      0.20978539
H       3.75930342      0.62572587     -0.01087692
