17
b3lypvtz=-191978.94384967
C      -1.56972275     -0.15562253      0.22819116
C      -1.30296914      1.31305379      0.43006965
C      -0.00489103      1.58925828      0.38313271
C       0.83013442      0.35269305      0.16063437
C      -0.22180097     -0.68136467     -0.31147272
N       0.06930447     -2.04002458      0.15952613
N       1.89377479      0.55732673     -0.83753694
H      -2.40072147     -0.35255400     -0.45370876
H      -1.81161736     -0.64537909      1.17834604
H      -2.08613681      2.03361281      0.62572077
H       0.43312478      2.56843974      0.53213032
H       1.23226607      0.01149134      1.12698819
H      -0.24004430     -0.60280906     -1.40572002
H      -0.69390270     -2.66240017     -0.08435029
H       0.88595135     -2.41089054     -0.31515823
H       2.52845969     -0.23455220     -0.83696280
H       2.45879096      1.35972111     -0.57982955
