12
b3lypvtz=-223852.67002501
N       2.04713565      1.42087177      0.16075941
C       1.05227554      0.66182742      0.03565811
N       0.88282346     -0.70379243      0.16975691
C      -0.52285521     -1.06658760      0.12890227
C      -1.15015705      0.23149423     -0.32477175
N      -2.35175387      0.40663613     -0.62956465
O      -0.16877307      1.19749318     -0.34117701
H       2.88352917      0.90580408      0.41740545
H       1.52405707     -1.20346164      0.76069957
H      -0.92535000     -1.35674143      1.10338149
H      -0.73413436     -1.86491115     -0.58281719
H      -2.53679733      1.37136745     -0.89813261
