12
b3lypvtz=-252113.89488576
N       2.63339999     -0.81312852     -0.07397108
C       1.26378802     -0.78173864      0.05339906
C       0.51391062      0.32766411      0.01171062
F       1.15972955      1.53598139     -0.06494446
C      -0.92410095      0.44871323      0.04881332
N      -1.69874067     -0.55267821     -0.11697348
O      -3.04363882     -0.17292538      0.04161413
H       3.10765636      0.06980387      0.03062476
H       3.10743468     -1.58348202      0.36601559
H       0.75530823     -1.73126324      0.13684395
H      -1.32576771      1.44380436      0.23454764
H      -3.51642331     -0.98907396     -0.14874304
