16
b3lypvtz=-181124.55105944
C      -1.46518915     -0.04129021     -0.45755662
C      -0.77073471     -1.31195765     -0.00218797
C       0.68290614     -1.11185282      0.20707206
C       1.39170746      0.05920195     -0.45682332
C       0.64393657      1.28601148      0.12022553
C      -0.64739974      0.67717903      0.64435553
N      -0.25316336     -0.66708706      1.26626909
H      -1.33388231      0.28381651     -1.49263787
H      -2.52858982     -0.06361021     -0.22531692
H      -1.21724786     -2.29908588      0.01050565
H       1.25767831     -1.98910612      0.47499095
H       2.45119865      0.07053278     -0.20136445
H       1.32254490      0.00984100     -1.54500552
H       1.20781210      1.72739072      0.94405536
H       0.46461940      2.06641677     -0.62091162
H      -1.20629657      1.30359973      1.33433012
