18
b3lypvtz=-205214.56697725
C       3.08711753     -0.15274194     -0.28881493
C       1.71970801     -0.38008388      0.35651394
C       0.64419132      0.54217451     -0.22187964
C      -0.73058575      0.43640637      0.44865854
O      -1.54593421      1.45158260     -0.12864622
C      -1.35067509     -0.93994632      0.28510073
N      -2.33290637     -1.24136454     -0.45156958
H       3.42649068      0.87489231     -0.14210033
H       3.05043907     -0.33804229     -1.36435455
H       3.84101083     -0.81656391      0.13691151
H       1.43115523     -1.42562899      0.22345799
H       1.79706751     -0.21745007      1.43628781
H       0.96389747      1.58287631     -0.12806518
H       0.51568251      0.34791884     -1.29021795
H      -0.60401341      0.61808711      1.52547840
H      -2.35595158      1.52985858      0.38612394
H      -0.88772117     -1.73646712      0.87199552
H      -2.65919560     -0.40603957     -0.94693301
