18
b3lypvtz=-205221.25445239
C      -1.38200378     -1.34992144      0.01560708
C      -0.55664626     -0.15157979      0.48789155
C      -1.16666312      1.16758562      0.00453431
C       0.92528466     -0.30187610      0.03403586
N       1.07627876     -0.20862675     -1.41204638
C       1.78682423      0.68775049      0.79911690
O       2.46251265      1.54284930      0.28555738
H      -1.00320907     -2.28493371      0.43449036
H      -2.42503504     -1.24615693      0.31971424
H      -1.34730958     -1.42679708     -1.07157351
H      -0.55407372     -0.14914996      1.58411673
H      -0.60785886      2.03583349      0.35996081
H      -1.18711801      1.20207577     -1.08562803
H      -2.19289649      1.26583787      0.36151745
H       1.24793345     -1.29607831      0.36595609
H       1.82226942     -0.81330239     -1.73021412
H       1.35994341      0.73439272     -1.65763998
H       1.74176735      0.59189721      1.90480325
