13
b3lypvtz=-213775.75574377
C      -2.45928617      0.32829847     -0.00001442
O      -1.47261222     -0.68872720     -0.00002707
C      -0.19458306     -0.25732838     -0.00004823
C       0.31076443      1.02266182     -0.00001395
N       1.68531867      0.84243691      0.00001091
H       2.37608413      1.57180616     -0.00003948
C       1.92006332     -0.49172673     -0.00000927
N       0.80381805     -1.18393544      0.00004570
H      -2.37828131      0.95811501      0.89187674
H      -2.37828249      0.95814231     -0.89188669
H      -3.42268796     -0.17454768     -0.00001945
H      -0.14259079      1.99518526      0.00004590
H       2.91401641     -0.90741852     -0.00003169
