14
b3lypvtz=-201248.63109832018
C      -1.84179599      0.33909512      0.11280738
C      -0.98672335      1.37413186      0.20955563
N       0.47106562      1.04959237      0.11219050
C       0.86029704     -0.23992611     -0.06326762
N      -0.02951486     -1.18638904     -0.14786571
C      -1.43517543     -1.00451911     -0.07157895
N       2.21888253     -0.59916428     -0.15927101
H      -2.90149243      0.54756833      0.18017031
H      -1.22380390      2.41191836      0.34895268
H       1.17085056      1.76162084      0.17547609
H       0.35180039     -2.11023486     -0.27788481
H      -2.04992439     -1.87686095     -0.15746364
H       2.72800403     -0.33594762      0.68068290
H       2.66753019     -0.13088490     -0.94250377
