11
b3lypvtz=-210582.214587
N       1.38817912      1.90067627     -2.30090131
C       0.84102716      1.29010570     -1.49031326
C       0.22841930      0.45762703     -0.49711768
C       0.90709695     -0.83397644     -0.21407661
N       0.97179136     -1.44824503      0.89740871
N      -0.87294748      0.90174228      0.02036068
N      -1.53619255      0.20647844      0.93901502
H       1.40783123     -1.28493571     -1.07212317
H       0.54151762     -0.91625912      1.65471949
H      -1.39080813     -0.79571934      1.01633772
H      -2.48601458      0.52250590      1.04669040
