17
b3lypvtz=-212875.16259939
C       2.32989024      0.00851806     -0.67669484
C       1.44241291     -0.67423953      0.36431543
N       0.37325635      0.17787145      0.90076718
C      -0.70850157      0.53616766      0.08970083
N      -0.94929180      1.91647186      0.01464555
N      -1.53360681     -0.26739068     -0.46493147
N      -1.37322026     -1.64046755     -0.17333874
H       3.10312786     -0.67702128     -1.03004824
H       2.82916672      0.88742446     -0.26142431
H       1.74329054      0.32218632     -1.54195181
H       0.97837226     -1.55764244     -0.07010096
H       2.04567902     -1.00494705      1.21204671
H       0.71599185      0.96317840      1.43541059
H      -0.16417066      2.44777877     -0.34023012
H      -1.78720960      2.10671018     -0.51768317
H      -1.15842439     -1.77377399      0.81541557
H      -2.26536166     -2.07620565     -0.36457620
