18
b3lypvtz=-181867.74910238
C       2.02851289     -0.70096282      0.22276360
C       0.52116657     -0.57653685      0.08485031
C      -0.30184957      0.48500718      0.88488994
C       0.23379014      1.56832323     -0.08913414
C      -0.14153827      0.35494593     -0.98150277
C      -1.45946444      0.27970504     -0.14481691
N      -2.29267773     -0.91346217     -0.13300914
H       2.28306963     -1.19516708      1.16344816
H       2.43289599     -1.31692394     -0.58408483
H       2.55359607      0.25312333      0.20125873
H       0.07802877     -1.57232966      0.11611749
H      -0.40290862      0.56700106      1.96785623
H      -0.38346848      2.45976203     -0.20420110
H       1.28445105      1.83208896     -0.01714165
H      -0.05632212      0.28570870     -2.06672308
H      -2.08631884      1.16655702     -0.26054310
H      -2.07559952     -1.54515707     -0.89135162
H      -2.21546349     -1.43138290      0.73132389
