16
b3lypvtz=-204444.74247742
C      -1.33222708     -0.75122010      0.61839821
C      -0.34890361     -0.16364078     -0.38583506
O      -0.92199986     -0.06495524     -1.67786992
C       1.04404003     -0.85197143     -0.38921717
C       1.61749587      0.30288996      0.48549045
C       0.37282997      1.09970167      0.13781328
N       0.15616223      2.33866371      0.12417358
H      -2.21085265     -0.10768246      0.71828848
H      -0.88508545     -0.84927864      1.60803025
H      -1.65680626     -1.73867509      0.28539787
H      -1.85632846      0.15098145     -1.59605240
H       1.08403109     -1.85956633      0.02047182
H       1.46037114     -0.84899041     -1.39440468
H       2.56173069      0.74736635      0.17748128
H       1.67762006      0.05335384      1.54603005
H      -0.76217771      2.54302351     -0.27819603
