13
b3lypvtz=-216153.81009252
C       1.97869811     -0.43614551      0.40025796
C       0.77743604     -0.16563568     -0.08975766
C       0.28432092      0.72505020     -1.18940509
O       0.80165341      1.29411427     -2.11053769
C      -1.16355435      0.59379335     -0.68268642
C      -0.64966505     -0.47328467      0.34160415
O      -0.87627759     -0.23625888      1.71624521
H       2.10877409     -1.04834305      1.28380581
H       2.86650774     -0.02900757     -0.06745992
H      -1.90505830      0.28057397     -1.41747485
H      -1.50005805      1.50519026     -0.18510598
H      -0.95481550     -1.48729720      0.06271064
H      -1.76776146     -0.52294949      1.93780385
