16
b3lypvtz=-204446.79718189
C       0.35618269      1.33657179     -0.36949565
C       0.39815645      0.00460446     -0.17870232
C      -0.72530549     -0.91878975     -0.28830555
C      -2.02021948     -0.64920321     -0.04283369
N      -2.58286058      0.56076746      0.30496205
O       1.53509439     -0.68583488      0.14371793
C       2.75240423      0.03134783      0.23282001
H      -0.54750694      1.79976146     -0.73103537
H       1.21953810      1.97124665     -0.25433497
H      -0.46774656     -1.93662741     -0.54455040
H      -2.74079832     -1.45064831     -0.15167238
H      -3.45593145      0.50650481      0.80326948
H      -1.94567796      1.24779522      0.68315997
H       2.72150117      0.77327560      1.03604101
H       2.98654915      0.53644588     -0.70864138
H       3.52242058     -0.70428561      0.45274026
