15
b3lypvtz=-170290.63948191
C      -3.51899212     -0.26507604     -0.05359344
C      -2.35810906      0.03508646      0.05674827
C      -1.00563379      0.42547209      0.20810211
C       0.04274159     -0.32147289     -0.17561619
C       1.45634725      0.05400283     -0.05233603
C       1.87632535      1.32171686     -0.11164966
C       2.41910931     -1.09484015      0.11364086
H      -4.53968602     -0.53688634     -0.15598867
H      -0.83479147      1.38835821      0.67818313
H      -0.15697318     -1.30559593     -0.58757977
H       1.19448215      2.14263494     -0.28741064
H       2.92337498      1.57101874     -0.00296338
H       2.18805932     -1.67493607      1.01018349
H       3.44790622     -0.74624360      0.18462810
H       2.34857949     -1.78172412     -0.73393117
