18
b3lypvtz=-181881.98943842
C       2.90518025      1.18583216      0.19311750
C       2.26970039      0.18991191     -0.02100936
C       1.45651214     -1.00266770     -0.30645616
N       0.02391916     -0.77029737     -0.47725461
C      -0.65831061     -0.26428961      0.71389706
C      -2.16831165     -0.16959504      0.50375460
C      -2.59179210      0.85340686     -0.55187423
H       3.47347761      2.06136311      0.38534994
H       1.59145355     -1.72799658      0.50052568
H       1.83735730     -1.47832307     -1.21347545
H      -0.11448457     -0.13166697     -1.25115187
H      -0.45417167     -0.96720819      1.52643535
H      -0.27090843      0.71339192      1.03902716
H      -2.62482953      0.09399568      1.46165610
H      -2.54719562     -1.15796021      0.23249201
H      -2.24189917      0.57792409     -1.54875831
H      -2.19960345      1.84661950     -0.32009910
H      -3.67859162      0.93117152     -0.60673632
