13
b3lypvtz=-213783.45628903
O      -2.30515881      0.00394850      0.09749394
C      -1.09048926     -0.02214327      0.00885473
C      -0.28946326      1.24293152     -0.16435313
N       0.96645612      1.35152590     -0.03802471
C       1.71891689      0.13407167      0.26334447
C       1.07418488     -1.13851201     -0.26989868
N      -0.33661222     -1.15112240      0.10097752
H      -0.88890495      2.12782591     -0.36544634
H       1.82849669      0.08367840      1.35172805
H       2.72179848      0.24487478     -0.14978326
H       1.19323044     -1.18695951     -1.35900893
H       1.56286945     -2.01563418      0.15427050
H      -0.84780544     -2.02068033      0.11031383
