15
b3lypvtz=-191206.1775917
C      -0.75598613      1.36872688     -0.27055656
C       0.66113617      1.10848590      0.18243126
C       0.96731920     -0.18691297      0.02643247
N      -0.09187334     -0.97997437     -0.52702099
C      -1.23438430     -0.03814113     -0.61947362
C      -1.22827951     -1.09000968      0.42156639
N       2.10254737     -0.90112221      0.36493182
H      -1.38060070      1.84459241      0.49267521
H      -0.80124189      2.01268530     -1.15515323
H       1.32245305      1.86774570      0.57175007
H      -1.87286183     -0.17136839     -1.48284662
H      -1.03294327     -0.79967257      1.44665047
H      -1.84114749     -1.97307413      0.29237530
H       2.93905944     -0.34979083      0.47389037
H       2.24680322     -1.71216990     -0.21765233
