15
b3lypvtz=-193611.83057895
C       1.27676154     -0.51532709      0.09042519
C       0.09037179     -0.81848993     -0.84589382
C      -1.11274991     -0.80738108      0.11774280
C      -0.83424317      0.57898050      0.67917878
C       0.68525473      0.76462253      0.66194980
C      -0.16488316      1.30682284     -0.45802555
O      -0.06941970      0.42279994     -1.56423950
H       1.43422839     -1.29710335      0.83411073
H       2.20060554     -0.34617181     -0.46309138
H       0.18283683     -1.64044628     -1.54712405
H      -1.06035697     -1.60199918      0.86269398
H      -2.06245789     -0.86732402     -0.41418383
H      -1.47276304      1.07418609      1.39405578
H       1.20155993      1.40071054      1.36395288
H      -0.29474492      2.34612028     -0.71155186
