15
b3lypvtz=-191180.76062794
C       0.87240826      0.02597596     -0.20685114
C       0.19921911      0.13810271     -1.34273288
N      -1.20914512      0.00743003     -1.57759488
C      -1.24417911      0.35660156     -3.01827934
C      -0.21078121      1.50135959     -3.10982520
N       0.78503211      0.42370526     -2.64401662
C      -0.07775484     -0.51946708     -3.49989450
H       0.36832313     -0.19949810      0.72204558
H       1.94308208      0.15552408     -0.20293672
H      -1.77626151      0.60754752     -0.99247155
H      -2.24293906      0.36325263     -3.44911498
H       0.04582199      1.82464103     -4.11616559
H      -0.30804850      2.35128838     -2.43515244
H      -0.05878348     -1.56233719     -3.19105138
H       0.18500615     -0.40292640     -4.54775836
