14
b3lypvtz=-226972.722286
C       1.30631895      1.57009487     -0.07010779
C       0.57449627      0.31630132      0.40588932
C       1.39332920     -0.95454276      0.19049314
O       2.47773472     -0.99122003     -0.32626787
C      -0.76565784      0.14519583     -0.25304099
N      -1.79569990     -0.08581840      0.45068678
O      -2.94160713     -0.23190561     -0.34198058
H       1.46278656      1.54572205     -1.14875026
H       2.28689733      1.64065111      0.39832066
H       0.73320678      2.46341173      0.17654921
H       0.38740849      0.35854145      1.48480964
H       0.90263031     -1.87725667      0.56092044
H      -0.83326361      0.21325259     -1.33903784
H      -3.63557314     -0.37652550      0.30951116
