10
b3lypvtz=-223036.04133172
C      -1.40722528     -0.92803864     -0.13445891
N      -0.61313459     -0.17664713     -0.76750501
C       0.31780299      0.61956301     -0.09355945
N       1.37298528      0.23699950      0.53040192
O       1.45784538     -1.14698694      0.61802712
C       0.14735555      2.03925745     -0.23022817
N      -0.04083284      3.16969801     -0.34050073
H      -2.08454871     -1.56034096     -0.70216721
H      -1.45824195     -0.97798946      0.95441000
H       2.30799416     -1.27551484      1.05280101
