21
b3lypvtz=-195913.28544863
C       2.60159163     -0.60735853      0.19779360
C       1.12013736     -0.52172397      0.56574132
C       0.28052397      0.17541002     -0.50061224
O       0.73255057      1.53641064     -0.54077626
C      -1.24776029      0.11030594     -0.28907176
C      -1.79785910     -1.30461900     -0.49519951
C      -1.69726317      0.70422444      1.04886294
H       2.74669554     -1.18511664     -0.71832337
H       3.01807342      0.38616180      0.03668648
H       3.17457541     -1.09310661      0.98923436
H       0.72410776     -1.52631684      0.72884182
H       1.00678081      0.02179011      1.50621869
H       0.49601995     -0.30045966     -1.46830451
H       0.30439763      1.97990716     -1.27924900
H      -1.67259882      0.73668048     -1.08478615
H      -1.46840403     -1.98313908      0.29391620
H      -2.88909142     -1.29830399     -0.48333124
H      -1.47874844     -1.72431254     -1.45186353
H      -2.78402624      0.80121963      1.08004148
H      -1.40245114      0.06962288      1.88676803
H      -1.26279040      1.69166779      1.20337466
