14
b3lypvtz=-201312.490993
C       2.50482063      0.48096454      0.00002742
C       1.09234894      0.01518464      0.00004742
N       0.69197968     -1.22693510      0.00004087
N      -0.69199479     -1.22691987      0.00006990
C      -1.09233668      0.01520866      0.00005168
C      -2.50479811      0.48101965      0.00002923
N       0.00001523      0.84414786      0.00007111
H       0.00002625      1.84959469     -0.00007572
H       2.73173015      1.08263961      0.88302850
H       3.15495818     -0.39054210      0.00002899
H       2.73171288      1.08261915     -0.88299272
H      -2.73166993      1.08277724      0.88298338
H      -2.73170159      1.08260173     -0.88303784
H      -3.15495483     -0.39047269      0.00012377
