17
b3lypvtz=-171054.8331698
C       3.42309093     -0.13225994     -0.25338842
C       2.13922402     -0.28349317     -0.09840901
C       0.85556919     -0.43144312      0.06266011
C      -0.04336425      0.57832608      0.73895990
C      -1.18486056      1.08274876     -0.15571358
C      -2.30238015      0.12089875     -0.45376967
C      -2.51612029     -1.06943300      0.09358250
H       4.12856763     -0.48865429      0.48868955
H       3.83424372      0.35180127     -1.13202424
H       0.38892279     -1.33209443     -0.32513470
H      -0.46357013      0.14071128      1.64992942
H       0.56041537      1.42923943      1.05496436
H      -0.76572958      1.43650070     -1.10347775
H      -1.62710773      1.97198856      0.30920952
H      -3.01369738      0.47790599     -1.19383101
H      -1.85852638     -1.49730403      0.83944486
H      -3.37367320     -1.66590984     -0.18813485
