15
b3lypvtz=-216891.66124645
C       2.65999339     -0.62216170      0.23001273
C       1.43185753     -0.05819516     -0.42536253
O       1.01004194      1.24804783      0.00020878
C       0.16665454      0.12512827      0.29229177
C      -1.14795692      0.10603318     -0.40843319
C      -2.40283605      0.30449943      0.32074570
O      -1.99912853     -1.00317031     -0.09823864
H       3.55964549     -0.15521075     -0.17487839
H       2.63944261     -0.44920383      1.30588070
H       2.72739644     -1.69705293      0.04975279
H       1.37079263     -0.19640465     -1.50293749
H       0.12633266     -0.15796615      1.34173642
H      -1.11301638      0.37779770     -1.46013680
H      -3.26380186      0.71271331     -0.19805604
H      -2.37527849      0.47656874      1.39217619
