14
b3lypvtz=-203699.34353286
C      -2.98283315     -0.29488207      0.00044251
C      -1.72616815     -0.73026931      0.00023410
C      -0.57559154      0.20494287     -0.00110307
O      -0.69005088      1.41152721     -0.00210374
N       0.68457263     -0.49638143     -0.00128531
C       1.72615251      0.23584725      0.00034990
C       3.09680055     -0.34007668      0.00007788
H      -3.82033557     -0.97922537      0.00139165
H      -3.19506344      0.76666124     -0.00036166
H      -1.48327158     -1.78414635      0.00100036
H       1.63438119      1.32702192      0.00200330
H       3.65045333      0.01588476     -0.87373330
H       3.64961028      0.01300158      0.87558898
H       3.06697783     -1.42708762     -0.00172361
