13
b3lypvtz=-213711.93689448
C       3.45343694     -1.16968840     -0.41854867
C       2.37696725     -0.64995749     -0.33667081
C       1.08780084      0.01817610     -0.26283474
O       0.16799061     -0.82364752      0.45176668
C      -1.07719017     -0.32326683      0.60599377
N      -1.43501971      0.79951266      0.15234298
N      -2.73005866      1.23848379      0.44838648
H       4.40474120     -1.63534349     -0.48685110
H       0.69553567      0.22061396     -1.26272549
H       1.17368811      0.98021425      0.24833595
H      -1.70538679     -1.01219779      1.17030394
H      -3.40360712      0.47696611      0.48798831
H      -3.00889818      1.88013466     -0.28022388
