16
b3lypvtz=-181129.82570955
C       2.54697976      1.03006136      0.52555173
C       2.03628277     -0.37096059      0.89596943
C       0.64067021     -0.59304870      0.52770013
C      -0.51134114     -0.76339630      0.22919389
C      -1.90801719     -0.95515318     -0.15274788
C      -2.34838902      0.00122369     -1.23785412
N      -3.41728704      0.66596191     -1.12508964
H       3.59341291      1.14028450      0.81314078
H       2.46629348      1.20182311     -0.54821650
H       1.96799657      1.80113386      1.03392586
H       2.66070574     -1.12830345      0.41254534
H       2.14909847     -0.52871656      1.97276676
H      -2.04484325     -1.97882596     -0.52299773
H      -2.57587957     -0.83112131      0.70171435
H      -1.68065051      0.05978075     -2.10460195
H      -3.57503221      1.24925687     -1.94683329
