15
b3lypvtz=-214525.76495024
C      -3.12757934     -0.25371365      0.00951617
N      -1.80282287      0.32734347      0.00908348
C      -0.80250527     -0.45827889      0.00511168
C       0.56280794      0.02548839      0.00389496
N       0.87291134      1.42912639      0.00728172
C       1.61681390     -0.81360515     -0.00068377
O       2.88565159     -0.38342649     -0.00196873
H      -3.67890527      0.09255005      0.88735222
H      -3.12762141     -1.35280272      0.00713575
H      -3.68100513      0.09633540     -0.86551239
H      -0.92497247     -1.55171430      0.00226573
H       0.44400014      1.87265311      0.81380047
H       0.44202533      1.87696604     -0.79579589
H       1.51913731     -1.89071803     -0.00362445
H       2.81511921      0.59207938      0.00118404
