12
b3lypvtz=-249565.00737039
C      -2.58627629      0.70394944      0.00000606
O      -2.01214136     -0.61815892      0.00002444
C      -0.69684576     -0.71219419      0.00002354
N       0.08538559      0.29485845     -0.00000506
C       1.46866678     -0.02173648     -0.00000986
O       1.96999058     -1.11348188      0.00001326
O       2.21391073      1.09944481     -0.00001918
H      -3.66060713      0.55041897     -0.00000234
H      -2.27222887      1.24960308     -0.88775281
H      -2.27224617      1.24962057      0.88776042
H      -0.35683947     -1.74594819      0.00001994
H       1.60588438      1.85034535     -0.00002640
