14
b3lypvtz=-201301.60020213
C      -1.44855598      0.85244366      0.13098582
C      -1.71180564     -0.57494608     -0.25148972
N      -0.84777194     -1.49164325     -0.36631245
C       0.53677754     -1.14701161     -0.07874197
C       0.82268233      0.32673591      0.11163927
N      -0.05618744      1.24328597      0.19513856
N       2.15791670      0.64024679      0.25416383
H      -1.93338894      1.05159411      1.09700428
H      -1.97072758      1.50635114     -0.57779708
H      -2.75065168     -0.84138538     -0.45659921
H       0.84683190     -1.69226199      0.81911876
H       1.15984265     -1.54349493     -0.88790420
H       2.36661723      1.62624060      0.21216284
H       2.82842085      0.04384508     -0.20136873
