13
b3lypvtz=-237072.89966748
N      -0.01248903      0.72565419      1.70150416
C      -0.31500692      0.26284809      0.55761026
C      -1.61661208      0.49431195     -0.18922792
O      -1.45901948      0.53260142     -1.59281489
N       0.53015188     -0.63633697     -0.12298223
C       1.78149107     -0.51955909      0.04341637
O       2.65796512     -1.36602224     -0.49625081
H      -0.73859077      1.35348050      2.04280123
H      -2.04748972      1.44777322      0.11480642
H      -2.31606553     -0.29948766      0.11122567
H      -0.88523776     -0.20718866     -1.82756098
H       2.26125058      0.26340031      0.62520221
H       2.15965264     -2.05137506     -0.96772948
