18
b3lypvtz=-205207.99712876
C      -3.04399542     -0.61552251      0.21373542
C      -1.56067844     -0.55601433     -0.09231812
O      -1.18164221      0.80562318     -0.20956770
C       0.20019517      1.00648894     -0.50077030
C       1.10710305      0.67548147      0.64480456
C       2.17064281     -0.13625350      0.61443259
N       2.71562768     -0.79396113     -0.48228399
H      -3.37312408     -1.65241861      0.30149575
H      -3.62053380     -0.13494788     -0.57727784
H      -3.26076246     -0.10438647      1.15220686
H      -1.34079562     -1.08309669     -1.03310825
H      -0.98320270     -1.04723160      0.69954325
H       0.27430326      2.06614254     -0.75644330
H       0.46858358      0.44207764     -1.40560847
H       0.87775866      1.16382732      1.58340997
H       2.74765942     -0.27776654      1.52130680
H       3.19942380     -1.65141071     -0.27094980
H       2.12415730     -0.88045213     -1.29368641
