15
b3lypvtz=-193600.21724229
C       2.80530425     -0.51347938     -0.17289416
C       1.65029427     -0.35591559      0.11077686
C       0.24098284     -0.12623227      0.42387718
C      -0.01831829      1.37982687      0.28006560
O      -0.85372278      1.86211406     -0.43363996
C      -0.71775602     -1.00127023     -0.40506607
C      -2.13917712     -1.03961334      0.15471382
H       3.82611183     -0.66565698     -0.42087849
H       0.09992670     -0.34557738      1.49217020
H       0.65169771      2.01343346      0.89371367
H      -0.30542373     -2.01044578     -0.43985024
H      -0.72648001     -0.62557637     -1.42909101
H      -2.76691893     -1.69783358     -0.44709642
H      -2.59611991     -0.05111562      0.15234274
H      -2.15051880     -1.42106388      1.17861128
