18
b3lypvtz=-181902.23066639
C       3.15188134     -0.29196488     -0.21733273
N       2.21027673      0.37095079      0.29453652
C       0.90566225      0.32153835     -0.34352662
C      -0.15187731     -0.18847597      0.64961147
C      -1.55651709     -0.17526150      0.09693299
C      -2.21313506     -1.30529463     -0.15556685
C      -2.18146592      1.17400301     -0.13876242
H       4.13553890     -0.27175674      0.24722945
H       3.04004412     -0.89988159     -1.12467391
H       0.65857380      1.34170182     -0.64691950
H       0.90581808     -0.30750250     -1.24529204
H       0.11620438     -1.20249763      0.95085570
H      -0.09612690      0.43683380      1.54573112
H      -3.22296531     -1.30060151     -0.54647237
H      -1.76455143     -2.27403277      0.02603503
H      -1.62099924      1.75585396     -0.87508276
H      -3.20643188      1.08176122     -0.49571165
H      -2.19032347      1.76347277      0.78265658
