17
b3lypvtz=-194380.38410227
C      -1.00869414      1.16198244     -0.32285917
C       0.27808381      1.50209719     -0.37223519
C       1.45379665      0.73848739      0.18175906
C       1.44131045     -0.77490768     -0.01997175
O       0.40930959     -1.45056452      0.67908767
C      -0.86872578     -1.38551863      0.06871452
C      -1.61140967     -0.07162249      0.29951095
H      -1.72056016      1.86583910     -0.74207785
H       0.51783403      2.45753820     -0.82776676
H       1.54363242      0.93906530      1.25620733
H       2.37266656      1.12073948     -0.27196193
H       1.37877377     -1.00773146     -1.09141921
H       2.37448610     -1.19315253      0.36147917
H      -0.77649005     -1.57781172     -1.00862445
H      -1.44416590     -2.20208430      0.50847202
H      -2.62927833     -0.20072930     -0.07938942
H      -1.71056936      0.07847356      1.38137501
