14
b3lypvtz=-203649.71559069
C       2.98045686     -0.03871318     -0.14725412
C       1.81737695     -0.09604348      0.14459093
C       0.41863281     -0.18127173      0.46180506
C      -0.44820850     -1.19963771     -0.25419935
C      -0.61344354      0.25953802     -0.57701732
N      -1.75045456      0.94706787     -0.02161239
O       0.10968889      0.11170587      1.79242434
H       4.01169617      0.01298128     -0.39166672
H       0.00241345     -1.83574424     -1.00223081
H      -1.20516528     -1.66386674      0.36398719
H      -0.22588274      0.59675196     -1.53171248
H      -2.62790914      0.57548376     -0.36261482
H      -1.72315702      1.93745953     -0.22706394
H      -0.74604433      0.57428878      1.75256441
