12
b3lypvtz=-223818.9866655977
C       0.90865892     -0.18549838      0.29076729
C      -0.56897978      0.09725188      0.37615253
N      -0.98497179      1.18297053      0.98303783
N      -1.40506845      2.09091495      1.49627999
C      -1.59852530     -0.74068582     -0.21835481
O      -2.79310109     -0.52872945     -0.19362723
N       1.39031671     -0.05211584     -1.08612805
H       1.42918634      0.44452256      1.02332571
H       1.08137787     -1.22063028      0.59532076
H      -1.17243451     -1.63158243     -0.71593415
H       2.34910206     -0.37119245     -1.16292716
H       1.36443900      0.91477471     -1.38791273
