14
b3lypvtz=-226965.13802452
C      -3.56533353     -0.32768315     -0.00001437
C      -2.26121823      0.40920850      0.00005783
C      -1.08141725     -0.19619439      0.00007340
O       0.08868522      0.52375049      0.00015526
N       1.20902992     -0.33101936      0.00007122
C       2.28299069      0.34283768      0.00006259
O       3.48232519     -0.26367445     -0.00008463
H      -4.16726796     -0.07565874     -0.87765982
H      -4.16733133     -0.07571717      0.87760419
H      -3.41360347     -1.40803811     -0.00004436
H      -2.28846070      1.49344422      0.00010089
H      -0.94167400     -1.26897832      0.00003283
H       2.33737167      1.42534412     -0.00005765
H       3.33698078     -1.22093232     -0.00008038
