11
b3lypvtz=-262012.49982741
O      -2.41173388      0.82247691     -0.74142254
C      -2.14038424     -0.04129543      0.06013870
O      -0.92458827     -0.44795993      0.42657636
C       0.26426714      0.09328855     -0.08924618
O       0.20525532      1.07441432     -1.00122371
C       1.38609682     -0.43971791      0.39504425
O       2.61189930      0.00395334     -0.03037425
H      -2.88706804     -0.62334313      0.60960264
H      -0.73139398      1.27842705     -1.18184716
H       1.33074816     -1.22847682      1.12943250
H       3.29680167     -0.49186696      0.42341940
