13
b3lypvtz=-190471.18398414
C       2.37109480     -0.02643551     -0.00000073
C       1.02778918     -0.00367130      0.00000026
C       0.23912615      1.22696151      0.00000091
C      -1.09894737      1.17692273      0.00000070
N      -1.73762494     -0.05604826     -0.00000017
C      -0.96818287     -1.19556269     -0.00000003
N       0.30692427     -1.22443911      0.00000039
H       2.94350258      0.88982040     -0.00000112
H       2.90045887     -0.96712353     -0.00000124
H       0.74087699      2.18393077      0.00000184
H      -1.73592370      2.04866568      0.00000159
H      -2.73917753     -0.12100051     -0.00000020
H      -1.52826643     -2.12634817      0.00000078
