17
b3lypvtz=-217678.60011964
C      -2.34922628      0.17233378     -0.22741660
C      -0.96161112      0.26984842      0.37867574
C      -0.25514967     -1.01412068      0.89800123
C       1.07306179     -0.43451980      0.38261055
O       1.97146059     -1.37480250     -0.16757997
C       0.26463238      0.47616466     -0.55052617
O       0.80848628      1.76835093     -0.74029413
H      -2.66000369      1.12522407     -0.66379599
H      -3.09450609     -0.10072716      0.52276141
H      -2.38128265     -0.58334227     -1.01575934
H      -0.93510863      1.04123956      1.15157217
H      -0.32770167     -1.25164715      1.95710713
H      -0.53505552     -1.89098129      0.31250082
H       1.55650120      0.17849995      1.15098971
H       2.78322567     -0.91856572     -0.41065231
H       0.10791059     -0.03731879     -1.50658422
H       0.30460983      2.22860799     -1.41792003
