14
b3lypvtz=-203648.93014964
N       2.54583166     -0.03864097      1.17280670
C       1.34279014      0.21847404      0.85755625
C       0.68252462     -0.07395184     -0.43248840
C      -0.70561400     -0.70566939     -0.57875286
C      -1.66597628     -0.13714961      0.45401603
O      -1.30469833      1.22726406      0.08102593
C      -0.47751984      0.72353893     -0.97046765
H       3.03470257     -0.50293829      0.40309430
H       0.73016305      0.72287706      1.60404237
H       1.35338388     -0.42014406     -1.21253374
H      -0.86093531     -1.58824643     -1.17936310
H      -1.48489322     -0.34609669      1.50940777
H      -2.71236048     -0.32429197      0.20926406
H      -0.47749846      1.24497517     -1.91750765
