10
b3lypvtz=-277088.59669573
O      -0.41756474      1.70596620     -0.30701263
C      -0.62216576      0.42205606     -0.05027948
O      -1.80588105      0.16078411      0.52479912
C       0.27718485     -0.55043834     -0.33848632
F      -0.13551603     -1.82059724      0.01206573
C       1.58116298     -0.45531092     -0.94783296
O       2.11611967      0.56805646     -1.32305364
H      -1.19167541      2.20634719     -0.01606841
H      -1.87432545     -0.79282570      0.67721407
H       2.07286094     -1.44423781     -1.04744550
