13
b3lypvtz=-216143.10744153
O       2.31008696      0.37054628      0.34987956
C       0.97252099      0.53393466     -0.02677441
C       0.19969229     -0.67527763     -0.39505137
C      -1.22994666     -0.27798212     -0.78031454
C      -1.38708994      0.27986136      0.65674071
O      -2.34012639      0.64332111      1.28575614
C       0.02646207     -0.02983723      1.01710105
H       2.84572118      0.30034037     -0.44723402
H       0.74721340      1.48873328     -0.49809843
H       0.67815751     -1.61929355     -0.60584817
H      -1.90295032     -1.12287740     -0.92797886
H      -1.34486270      0.42512464     -1.60733289
H       0.42492162     -0.31669378      1.97915524
