16
b3lypvtz=-204417.22297414
C      -1.96770678     -1.38267009     -0.45378585
C      -1.10093703     -0.70848487      0.62419288
C      -0.42444850      0.54542186      0.14013945
C      -1.29091988      1.74486403     -0.09110341
C       0.90263165      0.62146083     -0.08661704
N       1.72787041     -0.49352549      0.13508659
O       2.90530344     -0.30352748     -0.12540229
H      -1.35994302     -1.67669063     -1.30989539
H      -2.43289435     -2.28103280     -0.04731088
H      -2.76531128     -0.73019726     -0.81040007
H      -1.73705913     -0.44472682      1.47515224
H      -0.35175562     -1.41319987      0.97501619
H      -2.07139074      1.52647160     -0.82398806
H      -1.80441999      2.02147675      0.83431277
H      -0.72006107      2.60251986     -0.44210659
H       1.39487490      1.52279538     -0.44210354
