17
b3lypvtz=-191966.37353597
C      -2.51697036     -0.03110075      0.79024438
C      -1.29666929     -0.15008147     -0.09825088
C      -0.14055528      0.88005956      0.06796954
C       0.76702106     -0.32999726      0.16464829
C       2.07815361     -0.53831704      0.09745688
N       3.05294408      0.46499036     -0.13655553
N      -0.33949230     -1.22561228      0.28872505
H      -3.15876995     -0.90909448      0.69018941
H      -2.22067419      0.05188360      1.83685671
H      -3.10761883      0.84831847      0.52232536
H      -1.59756898     -0.22348639     -1.14847156
H      -0.21242477      1.46952050      0.98492667
H       0.02379140      1.55093785     -0.77488209
H       2.47022857     -1.54798482      0.13453476
H       2.67855538      1.39803750     -0.02520585
H       3.85517068      0.36781543      0.47266644
H      -0.33512085     -2.07588880     -0.26018217
