16
b3lypvtz=-227746.36238856
C       2.13814497      0.02227822     -0.03279023
C       0.76629311      0.45903826     -0.37479740
N       1.17134153      0.30550619      1.04238670
C      -0.28780721     -0.50685851     -0.86771474
C      -1.59172666     -0.40222767     -0.07624355
O      -2.01542421      0.95407607     -0.15097865
O      -1.44686316     -0.83000251      1.25045192
H       2.95417099      0.71912651     -0.17761912
H       2.40837895     -1.02112751     -0.13739176
H       0.65182615      1.47728235     -0.72351569
H       1.35474146      1.21160480      1.45775411
H       0.06679032     -1.53527988     -0.78187553
H      -0.48913353     -0.31345787     -1.92310041
H      -2.35718731     -1.05053454     -0.51509900
H      -2.75541758      1.04879503      0.45810048
H      -0.56812781     -0.53821894      1.55243287
