16
b3lypvtz=-227796.12230224
C      -2.13727375     -1.03675442     -0.34054869
C      -1.10335610      0.07167899     -0.25238043
C      -1.50744597      1.20308191      0.68031115
O       0.11622795     -0.55398263      0.23535648
C       1.28689821      0.03208334     -0.11403476
N       2.32959045     -0.65433907      0.42517351
O       1.39495653      1.01915200     -0.80749434
H      -3.07770776     -0.64040932     -0.72575617
H      -1.79968478     -1.82979170     -1.00769740
H      -2.32562930     -1.46991755      0.64321399
H      -0.88762521      0.47322686     -1.24195959
H      -0.73593674      1.97096650      0.70715332
H      -2.43396895      1.66320131      0.33236321
H      -1.67051737      0.82632384      1.69177124
H       3.25934010     -0.32675978      0.24497056
H       2.17726169     -1.46795230      0.99101392
