18
b3lypvtz=-181901.06618451
C      -1.40804456      0.73232435      0.83868251
C      -1.80369824     -0.13636966     -0.37715637
C      -0.45399866     -0.70367879     -0.88823170
C       0.60149416      0.03410917     -0.04925023
C       2.04333264      0.13108362     -0.42626121
C       1.62685982     -0.72623332      0.74920395
N      -0.02787701      1.17582264      0.59677371
H      -1.42062006      0.13197950      1.75197534
H      -2.06560725      1.58688670      0.99529087
H      -2.27129929      0.48361554     -1.14400967
H      -2.51712985     -0.91824505     -0.11540323
H      -0.32263552     -0.50093746     -1.95287889
H      -0.38768744     -1.78388981     -0.75514240
H       2.36647703     -0.36375396     -1.33255677
H       2.55701940      1.05779117     -0.20875135
H       1.85264244     -0.35409978      1.73840225
H       1.67279113     -1.80124747      0.63472545
H      -0.04211875      1.95474263     -0.05551226
