17
b3lypvtz=-191974.27352256
C       2.09059664      0.74772716      0.68157050
C       1.22644602     -0.04134788      0.02981957
N       1.55881025     -1.32355450     -0.43383029
C      -0.20143675      0.32884662     -0.16209890
C      -0.54808605      1.51472370     -0.65945555
C      -1.21606067     -0.71900232      0.25192659
N      -2.59061779     -0.22586272      0.21092735
H       1.76023083      1.66462350      1.14274726
H       3.13135304      0.47134184      0.79749540
H       1.17757619     -1.54970519     -1.34141899
H       2.54594641     -1.53034643     -0.39383947
H       0.20367555      2.23067291     -0.96122683
H      -1.58781641      1.77811238     -0.79071254
H      -1.14738108     -1.57327061     -0.42738633
H      -0.91037357     -1.10548248      1.23489103
H      -2.74137411      0.45751954      0.94432748
H      -3.23816951     -0.98530252      0.37939672
