16
b3lypvtz=-204461.99255598
C       2.25898826     -0.73298994     -0.33335716
C       1.09774415     -0.10630651      0.40750426
C       0.73242990      1.33868034     -0.00441791
C      -0.77085756      1.26140135     -0.09169772
C      -1.13504591     -0.02384888     -0.01207353
N      -2.37139668     -0.64012248     -0.02956614
O      -0.10369398     -0.90127077      0.16518404
H       2.40672663     -1.76863572     -0.02575261
H       2.08238948     -0.71217978     -1.40979509
H       3.17704873     -0.18038693     -0.12438927
H       1.27146982     -0.15212274      1.48636589
H       1.09650601      2.05422274      0.73674102
H       1.19796368      1.60882843     -0.96101038
H      -1.43342326      2.09385594     -0.25854222
H      -3.08720978     -0.12034577     -0.51133858
H      -2.33150152     -1.60388730     -0.32528859
