15
b3lypvtz=-191240.03892535
C       2.43097149     -0.98259939      0.01098279
C       1.77226515      0.39298878      0.00359320
C       0.26409881      0.42604802     -0.00299835
N      -0.27086433      1.68072789     -0.03764235
C      -0.50349793     -0.69477468     -0.01540972
C      -1.91310486     -0.61495062     -0.00374597
N      -3.06434881     -0.49901271      0.01237951
H       3.51540791     -0.87302696      0.02251397
H       2.16657667     -1.55885064     -0.87580011
H       2.14678649     -1.56017418      0.89077656
H       2.10932105      0.96192154      0.87739511
H       2.11509132      0.96027032     -0.86750302
H       0.30228325      2.46251391      0.22440932
H      -1.26363328      1.79296215      0.09041868
H      -0.05247292     -1.67233245     -0.03886363
