18
b3lypvtz=-205191.97316606
C       1.31295439     -1.73127523      0.16843815
O       0.71654915     -0.75224120     -0.66776202
C       0.12327570      0.33352407      0.01122285
C      -1.18475368      0.00259247      0.69146394
N      -2.17878216     -0.41668118     -0.30041489
C       1.04460237      1.36910815      0.59626975
C       0.28254147      1.64162810     -0.68527033
H       2.05560265     -1.28787805      0.83951296
H       0.57358102     -2.26805690      0.77172808
H       1.80797600     -2.44321336     -0.48972413
H      -1.54908201      0.89911557      1.19793115
H      -1.00079937     -0.74547751      1.47691416
H      -1.78432363     -1.14808865     -0.88098336
H      -2.99580879     -0.80514764      0.15472356
H       2.10728723      1.19166227      0.50594925
H       0.74617329      1.88224044      1.50076659
H      -0.54999365      2.33048120     -0.66383349
H       0.84935102      1.63354645     -1.60506321
