17
b3lypvtz=-194397.96541798
C       2.64376873     -0.56547148     -0.00000025
C       1.15452664     -0.68902128     -0.00000112
C       0.23765728      0.28996761     -0.00000120
C       0.54027321      1.76264034     -0.00000056
C      -1.22042568     -0.04247706     -0.00000099
C      -1.68293910     -1.48984085      0.00000161
O      -2.04362448      0.85429988     -0.00000008
H       3.06573473     -1.06912056     -0.87468428
H       3.06573182     -1.06909709      0.87469889
H       2.99426115      0.46336021     -0.00001336
H       0.79780749     -1.71257684     -0.00000099
H       1.60738617      1.96831210      0.00000391
H       0.09255433      2.24311647     -0.87118714
H       0.09254712      2.24311667      0.87118213
H      -2.76959931     -1.49646847      0.00000272
H      -1.32082173     -2.02329302      0.88044233
H      -1.32082338     -2.02329663     -0.88043761
