17
b3lypvtz=-171035.07502999913
C      -1.65593500     -1.27880583     -0.07028674
C      -0.50822689     -0.32308131     -0.37273006
C      -0.82999760      1.19652106     -0.13461982
C       0.57474235      1.77985819      0.02164149
C       1.37124877      0.81920866      0.47966996
C       0.74220065     -0.50902419      0.50676178
C       2.23290036     -0.31008880      0.12576503
H      -1.37438051     -2.31323856     -0.27506021
H      -1.95345421     -1.21382819      0.97925565
H      -2.53380543     -1.04681753     -0.67662864
H      -0.22113794     -0.43238479     -1.42436458
H      -1.37317451      1.64970106     -0.96744145
H      -1.45095916      1.32929999      0.76007524
H       0.86860042      2.75143474     -0.35474348
H       0.60767955     -1.00697758      1.46305720
H       2.93610592     -0.71779977      0.84382438
H       2.56759324     -0.37397717     -0.90417578
