17
b3lypvtz=-191979.28517718
C      -2.15696973      1.20973965     -0.47706760
C      -1.59247271      0.10632762      0.02344834
N      -2.01455886     -1.18853903     -0.29180263
C      -0.37666249      0.14838882      0.92491207
C       0.87621921     -0.38899567      0.28552608
C       1.98410690      0.33398672      0.11664874
N       3.13833872     -0.05753034     -0.56190362
H      -3.02440019      1.16442804     -1.12381363
H      -1.73725017      2.18375413     -0.27736330
H      -2.91232607     -1.24187037     -0.74885380
H      -1.94505019     -1.85262549      0.46510914
H      -0.60970576     -0.42985060      1.83112922
H      -0.21604130      1.17674760      1.24816258
H       0.84134315     -1.40929739     -0.08376602
H       2.01910033      1.36029021      0.46845546
H       3.99535670      0.32868098     -0.19813154
H       3.22042945     -1.05052388     -0.72214649
