16
b3lypvtz=-204446.08885547
C       2.68263354     -0.19331531      0.00025008
O       1.36639265     -0.73235860      0.00014115
C       0.32030581      0.14538055      0.00004779
N       0.36890695      1.41147114     -0.00001709
C      -0.96134192     -0.60152178      0.00004434
C      -2.14698064     -0.02805259      0.74595804
C      -2.14699128     -0.02806018     -0.74584309
H       2.86412542      0.41145565     -0.89174307
H       2.86384502      0.41178272      0.89207810
H       3.35583679     -1.04621137      0.00051834
H       1.31082833      1.78765749     -0.00001437
H      -0.84476687     -1.67492169      0.00006163
H      -1.97955187      0.91662742      1.24234818
H      -2.78582223     -0.72682347      1.26772619
H      -2.78585049     -0.72683032     -1.26759103
H      -1.97957721      0.91661832     -1.24224120
