11
b3lypvtz=-189667.28986144
C       2.42176709     -0.60052021     -0.03416605
C       1.33287773     -0.13818281     -0.21822924
C      -0.01936701      0.38371451     -0.42627069
C      -1.04925172     -0.46825965      0.32362759
N      -1.94821685     -1.06229157     -0.32601481
C      -0.12802389      1.78684946      0.00113580
N      -0.24657812      2.87603947      0.34911021
H       3.39283772     -1.00108628      0.12143740
H      -0.28210104      0.32866640     -1.48633778
H      -0.91446467     -0.50504171      1.40747972
H      -2.55947920     -1.59988761      0.28822786
