15
b3lypvtz=-216921.64010996
C      -2.39283055     -0.60367774      0.32167892
C      -1.43115495      0.14361593     -0.20465362
C      -0.02493859      0.20356935      0.31753882
C       0.99973290     -0.21223421     -0.74578684
C       2.41580283     -0.22548802     -0.21936536
O       3.14640352     -1.18196727     -0.28650465
O       0.31896186      1.54155857      0.70287850
H      -3.39605671     -0.61007727     -0.08335900
H      -2.20775016     -1.24480043      1.17602357
H      -1.63552280      0.78292317     -1.05879101
H       0.06263059     -0.46906226      1.17969700
H       0.76357475     -1.20019000     -1.13889348
H       0.94777437      0.51606598     -1.56253477
H       2.75557721      0.71780574      0.24713162
H      -0.32220428      1.84195846      1.35494030
