14
b3lypvtz=-224605.654781
N      -1.94658170      0.96771632      0.22636843
C      -1.18839255     -0.04427542      0.01586224
N      -1.61094236     -1.36712579     -0.08771656
C       0.26523565      0.18602681     -0.04994427
N       0.76214940      1.53028384     -0.14528313
C       1.19559034     -0.77506099      0.08323769
O       2.51166876     -0.50360907      0.10040947
H      -2.93093505      0.70792548      0.25173374
H      -1.09038213     -1.95180285     -0.72228420
H      -2.60745588     -1.49270720     -0.17105786
H       0.18740049      2.12712307      0.44210221
H       0.63640332      1.88675989     -1.08802348
H       0.97140231     -1.82353457      0.21395079
H       2.56057541      0.47255050      0.06359393
