9
b3lypvtz=-212193.46296356
C       0.83471161      0.03401415      0.08712633
C      -0.36522170      0.00471182      0.08876308
C      -1.77494057     -0.03879561      0.09065030
C      -2.62968174     -1.10205742      0.08880294
O      -3.87735106     -0.67941183      0.09174783
N      -3.78619601      0.79709627      0.09584486
N      -2.58508704      1.09054645      0.09489756
H       1.89591036      0.06534511      0.08567153
H      -2.44924384     -2.16294892      0.08549556
