15
b3lypvtz=-191165.95287273
C      -1.13697948     -0.68137123     -0.31632635
C      -0.71227138      0.80525470     -0.36107298
C       0.80300139      0.75085384     -0.62177821
C       1.17872600     -0.31590862      0.32560410
C      -0.20525122     -0.63431681      0.91738918
N      -0.66625673      0.80341710      1.16887942
N       1.29859755     -0.54801103     -1.13202068
H      -0.89710805     -1.33666503     -1.14928889
H      -2.17840028     -0.78091428     -0.01539462
H      -1.29424775      1.58156395     -0.85131236
H       1.37660683      1.65499611     -0.76155305
H       2.05663508     -0.27566629      0.95304539
H      -0.26559149     -1.33932379      1.74263055
H      -1.63057842      0.75832050      1.50052236
H       2.27311792     -0.44222912     -1.39932386
