15
b3lypvtz=-214515.92072594
N      -0.69442969      1.87213934     -0.19913418
C      -0.62925876      0.64924612      0.16046263
C       0.59983333     -0.11145041      0.45177656
C       1.73885044      0.06473019     -0.21857840
O       2.86453195     -0.63837673      0.07016649
C      -1.92728428     -0.11130759      0.33781527
N      -1.97609351     -1.30486508     -0.51665272
H       0.23354196      2.29847312     -0.20796353
H       0.55873743     -0.88730105      1.20885880
H       1.81170875      0.77346725     -1.03729553
H       3.55189194     -0.43474367     -0.56994432
H      -2.73653934      0.55817213      0.05411896
H      -2.03774999     -0.33185815      1.41277977
H      -1.26915052     -1.97560126     -0.23827082
H      -2.87170670     -1.76621421     -0.41102099
