15
b3lypvtz=-214471.68440792
C       3.52790470     -0.29919460      0.00000284
C       2.19205403      0.36419474     -0.00000001
N       1.13580320     -0.33950359      0.00000233
O       0.00000065      0.48318094     -0.00000139
N      -1.13580252     -0.33950297      0.00000098
C      -2.19205285      0.36419610     -0.00000123
C      -3.52790399     -0.29919231      0.00000060
H       4.10558598     -0.00069642      0.87849289
H       4.10558654     -0.00070376     -0.87848935
H       3.41632290     -1.38155718      0.00000729
H       2.13617784      1.45305525     -0.00000313
H      -2.13617590      1.45305656     -0.00000538
H      -4.10558351     -0.00070294     -0.87849362
H      -4.10558714     -0.00069185      0.87848862
H      -3.41632293     -1.38155497      0.00000756
