16
b3lypvtz=-227736.32591419
N      -0.73472235      1.57367927     -0.05622689
C      -0.27008537      0.30699147      0.53114271
C      -1.47007935     -0.64643886      0.58739592
O      -2.08954986     -0.77599505     -0.67855692
C       0.83030128     -0.24602958     -0.34126058
C       2.03945438     -0.84272842      0.22562334
O       2.06788236      0.48302560     -0.31558863
H       0.05776140      2.15657954     -0.29877463
H      -1.29456567      2.09279701      0.61051477
H       0.12949815      0.42947299      1.54663827
H      -1.15121789     -1.64196447      0.90133697
H      -2.18281748     -0.27610985      1.33803135
H      -2.08909389      0.11624549     -1.05531923
H       0.51887098     -0.55413047     -1.33415469
H       2.58914200     -1.58548352     -0.34296029
H       2.15308333     -0.90288814      1.30359153
