13
b3lypvtz=-216168.84131013
O      -3.28193137      1.62264521      0.01956544
C      -2.34136605      1.00336760      0.46050829
C      -1.21000405      0.53204316     -0.34758158
C      -0.20957975     -0.15974451      0.20023187
C       0.97161301     -0.69134885     -0.54029242
C       2.29601419     -0.51340660      0.17408210
O       2.42191094     -0.09132713      1.29238870
H      -2.28059503      0.74817603      1.53881265
H      -1.23594980      0.77638576     -1.40413165
H      -0.23047314     -0.35950751      1.26710320
H       0.86725750     -1.77556250     -0.69738272
H       1.05447617     -0.26417923     -1.54383800
H       3.17872738     -0.82734143     -0.41956589
