18
b3lypvtz=-181900.45421845
C      -1.98091467      1.36905229     -0.23992017
C      -1.48175793      0.14833936     -0.01779421
C      -0.23406544     -0.08419731      0.79905909
C       0.94857280     -0.57741204     -0.01611662
C       2.34800211     -0.38890568      0.50187418
C       1.86503803      0.40652032     -0.68515519
N      -2.01347302     -1.01513270     -0.58252110
H      -1.48838623      2.24669783      0.14940028
H      -2.87560083      1.52116850     -0.83068764
H       0.03308451      0.84405586      1.30531162
H      -0.45534533     -0.81578961      1.58712834
H       0.76241101     -1.49245708     -0.56387399
H       2.47306902      0.13375769      1.44137092
H       3.07163165     -1.17469133      0.33356286
H       2.25941603      0.16262034     -1.66173300
H       1.66114654      1.45917418     -0.54035252
H      -1.96023265     -1.83414299      0.00476658
H      -2.93259559     -0.90865764     -0.98431944
