18
b3lypvtz=-202788.65512274
C       2.84769713     -0.43950130     -0.06464809
C       1.74412257      0.42766588     -0.67359952
C       0.69541654      0.92117952      0.32861258
C      -0.18743171     -0.17528170      0.93801796
N      -1.00256182     -0.88890234     -0.03910469
N      -2.20243723     -0.48848171     -0.45822861
N      -2.52981279      0.66615754     -0.09349638
H       3.59021578     -0.71470530     -0.81532419
H       2.45727519     -1.36802429      0.35697767
H       3.36822167      0.09058512      0.73655756
H       2.20111422      1.29915104     -1.14914463
H       1.24264900     -0.12203203     -1.47493861
H       1.19338882      1.44257839      1.15279765
H       0.04155128      1.64921396     -0.15176884
H       0.41877516     -0.92540564      1.44726659
H      -0.86133953      0.27239514      1.67106477
H      -0.84205978     -1.86169873     -0.22508111
H      -3.45727851      0.81974647     -0.49125011
