13
b3lypvtz=-211377.038123
C       0.20032490     -1.25804484      0.28058681
C       0.87677097     -0.13480518     -0.01727700
N      -0.06276482      0.86947835     -0.28525206
C      -1.35971699      0.39565060     -0.03625646
N      -2.49352003      0.98759285     -0.02156272
N      -1.17180069     -0.95045018      0.21662970
N       2.23968199      0.18095014     -0.07548974
H       0.55781159     -2.25660629      0.44980168
H       0.16332221      1.84379132     -0.18192172
H      -2.40615415      1.97401972     -0.24031801
H      -1.91034651     -1.49254354      0.62654570
H       2.55279297      0.40170078     -1.01460684
H       2.81359856     -0.56073374      0.29912065
