17
b3lypvtz=-191984.89039928
C       1.33512843     -1.42070312      0.51172486
C       0.49653079     -0.62634436     -0.50126212
N      -0.91462236     -1.02793568     -0.58366007
C      -1.68219901     -0.19388429      0.35338022
C      -1.03992097      1.18050661      0.16680344
C       0.40918192      0.85522904     -0.12778679
N       1.34499781      1.70137655     -0.04137668
H       2.36082636     -1.04871327      0.55045376
H       1.37538624     -2.47390324      0.22624160
H       0.91495343     -1.35189471      1.51658002
H       0.96159759     -0.72151045     -1.48748070
H      -1.04533951     -2.01788393     -0.42361444
H      -2.74088281     -0.21033836      0.09440341
H      -1.59001027     -0.51370372      1.40171235
H      -1.46604234      1.68290074     -0.70537872
H      -1.13615181      1.84810966      1.02057988
H       2.24533350      1.28767554     -0.29074800
