17
b3lypvtz=-171090.66651472
C      -1.49442053     -1.57602569     -0.00000227
C      -0.25300240     -0.74121034      0.00000045
C       1.02064750     -1.17242930      0.00000030
C       1.95595069     -0.00000140     -0.00000832
C       1.02064871      1.17242751      0.00000321
C      -0.25300164      0.74120989      0.00000207
C      -1.49441890      1.57602650     -0.00000088
H      -2.11471405     -1.37124698      0.87701235
H      -1.25389803     -2.63879232     -0.00001047
H      -2.11471559     -1.37123340     -0.87701251
H       1.34390594     -2.20338268     -0.00001647
H       2.61732230     -0.00000294      0.87494565
H       2.61727586     -0.00000050     -0.87499857
H       1.34390827      2.20338055     -0.00001225
H      -2.11471753      1.37124170      0.87700866
H      -2.11470926      1.37124152     -0.87701620
H      -1.25389535      2.63879288      0.00000027
