15
b3lypvtz=-214522.5034823
C       1.51788793     -1.38957288      0.41666802
C       1.07360831     -0.19563989      0.00954558
O       1.88498352      0.79605935     -0.47051906
N      -0.26450430      0.19660250     -0.01957245
C      -0.64547120      1.54691180      0.37745043
C      -1.25899510     -0.73434704     -0.28455960
N      -2.51655796     -0.60191980     -0.16110674
H       2.54838651     -1.67572289      0.26298293
H       0.86046178     -2.09945779      0.88973953
H       2.79776467      0.57267668     -0.26049463
H      -1.14245150      1.54216491      1.35212316
H       0.24332859      2.16428322      0.43554718
H      -1.32397801      1.97956104     -0.35899632
H      -0.86007882     -1.66814578     -0.67052408
H      -2.78353142      0.30145157      0.22520604
