17
b3lypvtz=-194363.7646519
C      -2.10746629     -0.06054525     -0.01674182
C      -0.79040035      0.68596712     -0.09504944
C       0.37608670      0.22721418     -1.04109285
C       0.60742549     -1.20107604     -0.54990066
O       0.54090856     -0.99018534      0.88509261
C       0.32082872      0.43524923      0.95849476
C       1.32211239      0.99749438     -0.07011099
H      -2.77255092      0.41189626      0.70916308
H      -1.96559085     -1.09512529      0.29354485
H      -2.62071356     -0.05768896     -0.98129198
H      -0.95480778      1.75615293     -0.22368409
H       0.36199064      0.39953436     -2.11467357
H      -0.16380681     -1.90924397     -0.85894937
H       1.58698346     -1.59951757     -0.82239715
H       0.26308926      0.74147318      1.99887287
H       1.26575179      2.07705782     -0.18994789
H       2.35563154      0.66360695      0.01410163
