18
b3lypvtz=-181841.41369065
N       0.08188228      1.47655883     -0.71230334
C       0.00282233      0.45701118      0.35096255
C      -1.50334593      0.22074884      0.76521595
C      -1.53858417     -0.80161978     -0.46552477
C      -0.00927608     -0.94936392     -0.17053245
C       1.51858324     -0.82815720     -0.48194867
C       1.50618365      0.19785918      0.74126897
H       0.38625684      2.35031442     -0.29874497
H      -0.82188167      1.65687880     -1.13182101
H      -1.63597728     -0.30681807      1.70906897
H      -2.17148142      1.08304138      0.72899859
H      -1.78185688     -0.29914825     -1.39986957
H      -2.16368651     -1.68803795     -0.36485125
H      -0.01224369     -1.57912729      0.72478870
H       1.75130513     -0.31193759     -1.40688337
H       2.12233282     -1.72847082     -0.37758471
H       2.19079498      1.04539397      0.69318903
H       1.62281838     -0.32090475      1.69141435
