15
b3lypvtz=-193583.96742638
C       2.85208980      1.03254010      0.20415006
C       2.10794866      0.13802104     -0.10166540
C       1.27207249     -0.94070607     -0.49780133
C       0.00846455     -1.13066161     -0.10037163
C      -0.76403649     -0.26117892      0.84614773
O      -2.08834062     -0.01012106      0.39898093
C      -2.16004148      0.90630576     -0.67816027
H       3.50310078      1.82387263      0.48049063
H       1.72464454     -1.66090660     -1.17133584
H      -0.52638877     -1.99697005     -0.47422043
H      -0.87685845     -0.77845173      1.80305357
H      -0.23019435      0.67720817      1.03377610
H      -3.21541965      1.04907161     -0.90299680
H      -1.71794691      1.87313176     -0.40793008
H      -1.65297311      0.53173897     -1.57400324
