14
b3lypvtz=-180367.27968583
C       2.06705616     -0.69791322      0.04301787
C       0.87105582     -0.11013464     -0.05220855
C       0.50524227      1.26689469      0.27989273
C      -0.76848423      1.48608900     -0.07165842
N      -1.40014048      0.36798305     -0.69786623
C      -0.38603896     -0.70960729     -0.59857208
C      -1.60947822     -0.74456943      0.25460778
H       2.92719077     -0.16194436      0.42064806
H       2.21778126     -1.72772312     -0.25131487
H       1.16712636      1.98200069      0.74431316
H      -1.35169411      2.38488034      0.06422632
H      -0.32681097     -1.39044946     -1.43709225
H      -1.50559985     -0.51733069      1.30827282
H      -2.40720582     -1.42817557     -0.00626634
