19
b3lypvtz=-195151.8610981
O       2.77508947     -0.08574009      0.68681323
C       1.88159394     -0.17040866     -0.42271115
C       0.54097585      0.40765604     -0.01187646
C      -0.49078783      0.42408393     -1.17230009
C      -1.85651806      0.03227410     -0.54767909
C      -1.63103340      0.05657730      0.97429890
C      -0.16227510     -0.34969561      1.12712648
H       3.62431676     -0.45453595      0.42924271
H       2.27965152      0.38428980     -1.28198045
H       1.74633072     -1.21542851     -0.73468180
H       0.71848631      1.43415254      0.32201952
H      -0.20725415     -0.28448490     -1.95414136
H      -0.52869997      1.40638140     -1.64387996
H      -2.13512007     -0.97602620     -0.86095425
H      -2.66372766      0.69386527     -0.86275610
H      -1.77490642      1.06933172      1.36140878
H      -2.31824626     -0.59557272      1.51483339
H       0.25840486     -0.12025829      2.10490153
H      -0.05628050     -1.42906119      0.97241619
