16
b3lypvtz=-204457.08451573
C       2.61009020      0.50664149      0.59420610
C       1.14113775      0.23716315      0.63853628
N       0.42454787      0.20578259     -0.40192914
C      -0.99481747     -0.06758543     -0.26017678
C      -1.34568372     -1.38700742     -0.96665970
C      -1.77361577      1.05360630     -0.93307616
O      -2.83152733      1.46715444     -0.53784708
H       2.85331318      1.38557214      1.19721845
H       2.93867478      0.66847858     -0.43009714
H       3.16415547     -0.33178794      1.02480926
H       0.70814575      0.06406239      1.63473977
H      -1.31927292     -0.11456395      0.78729019
H      -1.06745928     -1.34487862     -2.02033606
H      -2.41399412     -1.58761807     -0.88754383
H      -0.79797905     -2.20859544     -0.50477000
H      -1.29561532      1.45357579     -1.84996416
