16
b3lypvtz=-204448.23282944
C       2.97605628      0.17736387     -0.55461776
C       1.89398270     -0.36756993      0.01274796
C       0.59977336      0.31020665      0.03685272
C      -0.48872694     -0.08813637      0.69925351
C      -1.80250960      0.63137964      0.69419316
N      -2.88255311     -0.28922993      0.31727807
O       2.00192551     -1.59231285      0.61317781
H       3.92302064     -0.34133282     -0.56035984
H       2.92010154      1.15923614     -0.99758753
H       0.55735247      1.22364012     -0.54603374
H      -0.48241215     -0.99087461      1.30474015
H      -2.02002643      0.98043796      1.70888165
H      -1.72718944      1.52510974      0.06063181
H      -3.78621909      0.15032073      0.44347552
H      -2.80568870     -0.53800222     -0.66209505
H       1.12311293     -1.95023612      0.77242110
