16
b3lypvtz=-204450.52687858
C       2.27161909     -1.12422753     -0.30083855
C       1.44574566     -0.14959538      0.06720115
C       1.88664424      1.26972336      0.28409232
C      -0.00451368     -0.44439824      0.32757744
O      -0.80692677      0.40470220     -0.51108702
C      -2.15363094      0.32981415     -0.38374153
N      -2.87040365     -0.38501648      0.36804683
H       3.32793563     -0.94339713     -0.45250767
H       1.92156394     -2.13621962     -0.45961992
H       1.34585125      1.94699659     -0.37924040
H       1.67307384      1.59302651      1.30717158
H       2.95410735      1.38511051      0.10331427
H      -0.25150549     -0.23708199      1.37587903
H      -0.23300283     -1.49148538      0.11775235
H      -2.61112607      1.02948491     -1.07808077
H      -2.33625957     -1.00405147      0.97347088
