16
b3lypvtz=-204434.82893843
C       0.11707198      2.14621958      0.03838474
C       0.37810320      0.98243495      0.62098015
C      -0.24354235     -0.34885954      0.29360803
C      -1.44898224     -0.29879831     -0.65786313
O      -2.04223370     -1.57506568     -0.79381267
N       0.65739456     -1.37814510     -0.25091622
C       1.87785870     -1.14443465     -0.46598585
H       0.60469085      3.05580372      0.36433080
H      -0.59033354      2.24554197     -0.77457850
H       1.10044000      0.96309186      1.43247546
H      -0.61994520     -0.78408378      1.22719459
H      -2.21084331      0.36900660     -0.25578762
H      -1.12982887      0.09325406     -1.63199869
H      -1.31255481     -2.19819828     -0.90953888
H       2.49147944     -1.93622078     -0.89073975
H       2.37132530     -0.19124662     -0.26135246
