11
b3lypvtz=-264616.86703041
C      -1.46121694     -1.18537895      0.40688712
C      -0.64466945     -0.13500716      0.28371905
N       0.71101693     -0.29301498      0.46485196
C       1.49558255      0.69667071      0.35075949
O       2.81925060      0.56554184      0.52302009
O      -1.10388905      1.11711744     -0.02062370
F      -2.79810270     -1.00228179      0.22290742
H      -1.16278431     -2.19090320      0.64344717
H       1.21462185      1.71764791      0.11307300
H       2.99361371     -0.36493601      0.73092321
H      -2.06342319      1.07454419     -0.11764818
