14
b3lypvtz=-229605.51989131
C       0.56505812     -1.15531497     -0.49394716
C      -0.37744043     -0.34069945      0.43591283
N       0.57352530      0.63057018      0.99521246
C       1.66874428      0.63356249      0.14780177
N       1.76198077     -0.31598320     -0.69555529
C      -1.49019027      0.33803086     -0.34120641
F      -2.19251476      1.20833322      0.50034222
H       0.86137913     -2.09888367     -0.02993400
H       0.10265597     -1.39772252     -1.45309608
H      -0.81386289     -0.94843285      1.22882722
H       0.21026755      1.50492825      1.34374141
H       2.41996797      1.40749139      0.25694424
H      -2.19939052     -0.39670581     -0.72816403
H      -1.09018025      0.93082606     -1.16687915
