13
b3lypvtz=-216173.38860773
C      -1.61736101     -0.60468399     -1.00181328
C      -0.66508082     -0.17840881     -0.16470844
C      -1.07636338      0.12878590      1.22641522
O      -0.36445904      0.52314641      2.11871085
C       0.75587546     -0.04007800     -0.68852063
C       1.84547622      0.43386837      0.23383999
O       0.98303287     -0.31737778     -1.84657699
H      -2.64244227     -0.71890112     -0.67148282
H      -1.37894302     -0.84414803     -2.02894660
H      -2.15830373     -0.03970194      1.40553680
H       1.60712800      1.41897222      0.63673883
H       1.93014305     -0.22496557      1.09911073
H       2.78129766      0.46339235     -0.31840367
