17
b3lypvtz=-191985.03356556
C       0.82991755      1.82353358     -0.56587172
C       0.95963361      0.81252784      0.58301017
C       0.83312302     -0.63149866      0.12283000
N       1.85555113     -1.39524411     -0.01846467
C      -0.46658242     -1.20787207     -0.21549817
C      -1.71872868     -0.70913219     -0.14943553
N      -2.17920166      0.54043657      0.20105114
H       0.95402498      2.84433928     -0.20056659
H       1.59897250      1.63945046     -1.31677807
H      -0.13891009      1.75587279     -1.06067591
H       0.22833467      1.02728605      1.36886563
H       1.93687958      0.92902193      1.05587928
H       2.70977427     -0.90291639      0.24371118
H      -0.38936613     -2.22459443     -0.57544615
H      -2.52046760     -1.36508857     -0.46815528
H      -1.58304029      1.15196234      0.72960826
H      -3.15071343      0.60532459      0.44974443
