15
b3lypvtz=-193575.197423
C      -1.22431208      0.76589271      0.15127996
C      -1.20121273     -0.79401890      0.16929359
C       0.24231238     -1.04751760     -0.23670840
C       0.67870780     -0.00287757     -1.30220669
C       0.21128835      1.05252355     -0.26077983
C       1.16467204      0.02389900      0.40993575
O       2.05034154      0.02350492     -0.76667740
H      -1.94541165      1.16439293     -0.56388471
H      -1.46526376      1.19076021      1.12681880
H      -1.42966389     -1.20312604      1.15453372
H      -1.91000054     -1.23017099     -0.53612987
H       0.61980760     -2.06237801     -0.32803826
H       0.55275533     -0.01711971     -2.38316164
H       0.55878461      2.07571793     -0.37532846
H       1.62529498      0.04201756      1.39585344
