12
b3lypvtz=-202912.45535616
C      -2.90493029     -0.90870047      0.01129770
C      -1.82558245     -0.38270815      0.00037114
C      -0.55260563      0.26862200     -0.00292407
N      -0.61794209      1.63858971     -0.04370952
C       0.58557512     -0.48615767     -0.00620184
C       1.93009510      0.03980473      0.00842213
O       2.93822496     -0.64109538      0.00019930
H      -3.85197945     -1.38919386      0.01743862
H       0.21161254      2.17615971      0.13440182
H      -1.48821040      2.07304683      0.20599538
H       0.48390262     -1.56099968     -0.02061126
H       2.02971396      1.14782323      0.03039860
