17
b3lypvtz=-191926.35888207
N       2.52873277      0.71525295      0.11297919
C       1.48792664     -0.32134313      0.01142525
C       0.20593333      0.28989752     -0.51463940
C      -1.14016673     -0.47723799     -0.39813691
C      -1.87374826      0.87307023     -0.60212401
C      -0.73824318      1.09748618      0.42769631
N      -1.08627854     -0.22153297      1.10407674
H       3.42474884      0.28922853      0.31816948
H       2.32572890      1.33024816      0.89324423
H       1.28621689     -0.84453674      0.94967502
H       1.83597684     -1.06338196     -0.71256735
H       0.37520297      0.76818258     -1.47925972
H      -1.39518167     -1.45620433     -0.80214198
H      -1.79168455      1.36230122     -1.57465201
H      -2.88845190      0.92434711     -0.20515731
H      -0.51666230      1.99557241      1.00303217
H      -2.04005006     -0.16784975      1.46828031
