12
b3lypvtz=-249564.49122502
N      -1.67660077     -1.32748421     -0.00002995
C      -1.19073230     -0.06118639     -0.00018688
O      -1.92702402      0.92330729     -0.00012168
C       0.26938261      0.16938443     -0.00011261
O       0.60912181      1.49483543     -0.00002686
C       1.24725728     -0.74515760     -0.00007523
O       2.56341559     -0.42715542      0.00008959
H      -2.67418144     -1.44666132      0.00025969
H      -1.08951656     -2.13961050      0.00026996
H      -0.24416502      1.96722200      0.00002057
H       1.07305982     -1.80946429     -0.00019594
H       2.63712001      0.53760660      0.00015535
