12
b3lypvtz=-226216.46781032
C       1.66531094      0.16328022     -0.07870414
N       1.11023884      0.03671505      1.05611162
C      -0.17482437     -0.56926190      0.80702912
C      -1.11610573      0.22697916     -0.07445233
C      -0.22433981     -0.79617906     -0.70865556
O       1.02955089     -0.32300388     -1.17432205
O      -0.90393707      1.57458525     -0.34586091
H       2.62617197      0.61778984     -0.27137533
H      -0.56338863     -1.23326743      1.56541192
H      -2.15790395     -0.07075154     -0.00481623
H      -0.58705159     -1.65571906     -1.25051974
H      -0.70372148      2.02883334      0.48015363
