16
b3lypvtz=-181130.09952959
C      -3.87962195     -0.42456730      0.00500086
C      -2.48438144     -0.00939551      0.01706839
C      -1.32571473      0.32822963      0.02348953
C       0.01979237      0.76446152      0.04242688
C       1.07427951     -0.06047176     -0.12067563
N       2.39229384      0.31708650     -0.20314739
C       3.45046727     -0.61387358      0.14470717
H      -4.53914332      0.41679789      0.22920205
H      -4.07303340     -1.20085154      0.74956169
H      -4.17274199     -0.82151767     -0.97028041
H       0.19552609      1.82775134      0.18208205
H       0.90770953     -1.12426300     -0.24701861
H       2.57855220      1.28019441      0.03061903
H       3.52935037     -0.80552612      1.22214091
H       3.27372387     -1.56655171     -0.35561014
H       4.40600778     -0.22710607     -0.20791039
