15
b3lypvtz=-214527.52013189
C       2.50564964     -0.77873097     -0.49573501
C       1.53427060     -0.00235532      0.00131614
N       1.54226306      1.37775776     -0.02017314
C       0.31535470     -0.60902621      0.66703863
N      -0.89827165      0.14927434      0.39960598
C      -1.87006926     -0.44408799     -0.13089014
O      -3.03625060      0.16655719     -0.41761900
H       3.40716374     -0.36120997     -0.92463304
H       2.41228921     -1.85355125     -0.48026169
H       0.84523392      1.85222345      0.52556488
H       2.42438551      1.84750399     -0.12148386
H       0.23470975     -1.65982645      0.37047620
H       0.47912130     -0.58455458      1.75038026
H      -1.89991012     -1.49673789     -0.41750665
H      -2.94606781      1.09323288     -0.15053955
