15
b3lypvtz=-216914.29892683
C       0.51966573      1.64232563      0.01351681
C       0.04710420      0.20533679     -0.03083267
C       1.19081889     -0.77748232     -0.22822112
O       2.30842127     -0.61758820      0.18649164
C      -0.92791141     -0.25717079      1.09210252
C      -1.95095570     -0.41811053     -0.04158781
O      -0.97713783     -0.02162792     -1.03760252
H       0.94905395      1.92632377     -0.94800378
H       1.28858437      1.75937997      0.77712396
H      -0.31323555      2.31015807      0.23170603
H       0.89649143     -1.69256237     -0.78375825
H      -1.14361943      0.50905856      1.83281075
H      -0.64968520     -1.17798152      1.60133455
H      -2.31321771     -1.43336300     -0.21401186
H      -2.80086599      0.26703887     -0.01644423
