12
b3lypvtz=-223836.11799426
N      -2.26945785      0.24835642      0.00202916
C      -1.61831222     -0.82594320     -0.00023699
N      -0.23068446     -1.10350731     -0.00276153
C       0.94045044     -0.36112566      0.00010220
N       2.11696863     -0.86653189      0.00155774
C       0.99132004      1.15180734      0.00079273
O       0.07040491      1.92532052     -0.00087838
H      -1.67278861      1.07371406      0.00182529
H      -2.15742773     -1.77422536     -0.00077622
H      -0.04654274     -2.09651209     -0.00351064
H       2.11565901     -1.88678881      0.00093962
H       2.04093159      1.48309399      0.00284502
