15
b3lypvtz=-191229.01443731
C      -2.20562574     -0.26827275      0.58777329
C      -0.91181965     -0.12593411      0.34136218
C      -0.00511781     -1.09572478     -0.37634496
C       1.23421004     -0.29085559     -0.72646590
N       2.19646947     -0.75792004     -1.41569315
N       1.07454966      0.95986779     -0.16698737
C      -0.08225997      1.09091427      0.70716569
H      -2.74381109     -1.15948094      0.29202137
H      -2.77556998      0.50123742      1.09350360
H       0.29315943     -1.92679539      0.26865914
H      -0.45415349     -1.52960261     -1.26841560
H       2.94470957     -0.07590025     -1.53682093
H       1.85729521      1.58740400     -0.09386355
H       0.20173483      1.06905548      1.76760217
H      -0.62367051      2.02190750      0.52650404
