15
b3lypvtz=-214535.08719961
C      -0.90385671      1.08082615     -0.77236037
C      -0.56155063     -0.04362195      0.21985154
C      -1.70336495     -1.02635794      0.30615228
O      -1.59711916     -2.21273957      0.11920340
N       0.65292960     -0.75014484     -0.11154515
C       1.88188711     -0.26130604      0.21671520
N       2.05038853      0.91531014      0.68139026
H      -1.83135926      1.58103532     -0.48735577
H      -0.09904231      1.81213026     -0.76325277
H      -1.01346256      0.68243210     -1.78153286
H      -0.45798438      0.41731274      1.21227862
H      -2.68398994     -0.57242196      0.54665857
H       0.54818102     -1.74250801     -0.25618527
H       2.68439735     -0.97842852      0.02269413
H       3.03394629      1.09848212      0.84728823
