17
b3lypvtz=-191967.27570006
C       1.84654299      1.50582144     -0.63850987
C       1.20203837      0.44424945     -0.13695115
C      -0.26146483      0.21457811     -0.40542586
C      -1.27445577      0.32454442      0.77105909
C      -1.91137998     -0.96665027      0.21576888
N      -0.66442973     -1.21312883     -0.55009650
N       1.75101544     -0.49138883      0.72908998
H       2.88682006      1.70473858     -0.41568012
H       1.32727219      2.21629824     -1.26405437
H      -0.57177713      0.84021326     -1.24690799
H      -1.89053559      1.21947710      0.79889672
H      -0.79149501      0.17768768      1.73403709
H      -2.78384015     -0.76101011     -0.41331972
H      -2.16754525     -1.75460107      0.92543003
H      -0.78100838     -1.54022455     -1.50159575
H       1.32700759     -1.40427267      0.63160362
H       2.75723520     -0.51633193      0.76665590
