18
b3lypvtz=-205200.27641535
C       1.45941787      1.31759382     -0.54552204
C       0.75976728      0.17270212      0.15308999
C      -0.51141766      0.53895674      0.91031951
C      -1.75277111      0.59360452      0.01543151
O      -2.16157559     -0.69370297     -0.41323063
C       1.57003826     -0.98631082      0.59594211
N       0.67243879     -1.12399781     -0.56789508
H       0.79144607      1.81628006     -1.25123271
H       2.33404726      0.96897097     -1.09813200
H       1.79535912      2.06480891      0.17661313
H      -0.70157491     -0.19416300      1.69671843
H      -0.36661669      1.50608823      1.40027884
H      -1.56950749      1.25443131     -0.84445110
H      -2.58839823      1.02251879      0.57225709
H      -1.35182882     -1.18006213     -0.63612421
H       1.27185430     -1.55130078      1.47037634
H       2.63742233     -0.96877741      0.41018801
H       1.20820622     -1.08592654     -1.42872018
