17
b3lypvtz=-215270.25406254
C       2.32115764     -0.16023823     -0.65104174
N       1.43273377     -0.95973475      0.18316603
C       0.51655174     -0.26175504      1.06004115
C      -0.64942863      0.54721217      0.44703769
O      -0.10317265      1.70919923     -0.17778052
C      -1.45557596     -0.26688335     -0.54086267
N      -2.55350459     -0.86263934     -0.33382111
H       3.03478227     -0.82369546     -1.14195432
H       2.88872187      0.52157838     -0.01448798
H       1.82241016      0.44652001     -1.41498492
H       0.96760926     -1.68148810     -0.34931005
H       0.07068512     -0.99511296      1.73742610
H       1.09133075      0.43632970      1.67509334
H      -1.30956767      0.83625571      1.27764502
H      -0.82334750      2.25256324     -0.51339347
H      -1.02026707     -0.33614064     -1.54084327
H      -2.86928251     -0.71787458      0.63000473
