13
b3lypvtz=-213775.70057314
N       2.26456634     -0.34070312     -0.42889294
C       1.09480642     -0.11970396      0.42474090
C       0.45425655      1.22066822      0.11440035
N      -0.79570333      1.23939780     -0.12261511
C      -1.26669732     -0.12660404     -0.05235403
O      -2.41936982     -0.43605145     -0.12748602
C      -0.06757704     -1.06454500      0.12598012
H       2.98567314      0.34554514     -0.23329278
H       2.67224537     -1.24829343     -0.23582871
H       1.33204989     -0.13678085      1.49992482
H       1.03723867      2.13923499      0.09858640
H      -0.27533443     -1.80337933      0.89687348
H       0.10249256     -1.58735697     -0.81704949
