17
b3lypvtz=-191967.65978606
C      -2.17339093     -0.36375746      0.40584300
C      -1.00763338     -0.11007392     -0.52721986
C      -0.11289489      1.13269316     -0.29902608
C       1.09576143      0.17374657     -0.50813078
C       2.24379503      0.26174443      0.46151220
N       2.46992129     -0.52543852      1.42424741
N       0.18650047     -0.97134448     -0.30458393
H      -2.95768606      0.38235896      0.25783627
H      -2.60997107     -1.34834698      0.22456366
H      -1.84590229     -0.32551868      1.44542697
H      -1.34996512     -0.14368752     -1.56861172
H      -0.17085130      1.50743457      0.72200438
H      -0.21757977      1.95781557     -0.99862123
H       1.48522120      0.26013098     -1.53087275
H       2.92744497      1.10097025      0.30334238
H       1.73545288     -1.24211793      1.43744993
H       0.30167753     -1.74680901     -0.94515985
