13
b3lypvtz=-192828.30946121
C       2.76487848      0.72365811     -0.86418897
C       1.69131759      0.57210197     -0.35261828
C       0.40558370      0.35041228      0.28979949
C      -0.22986046     -1.04500836      0.01957325
C      -1.65379539     -0.66256783     -0.30132536
C      -1.72861406      0.65699759     -0.41338196
O      -0.56667838      1.33736981     -0.17798545
H       3.71129202      0.86767787     -1.32267283
H       0.50808732      0.51271667      1.36628553
H       0.25835652     -1.55133044     -0.81653622
H      -0.13378946     -1.68944848      0.89400076
H      -2.45978397     -1.35627918     -0.47234097
H      -2.56699391      1.28389997     -0.67520900
