19
b3lypvtz=-195133.64967502
C      -3.66141721     -0.02140340     -0.48009397
C      -2.63259448     -0.23027377      0.33126625
C      -1.33650588      0.52372162      0.30250998
C      -0.12381206     -0.38618086      0.05927285
C       1.18902410      0.37700737      0.08244591
O       2.25167169     -0.53204298     -0.13416540
C       3.51897748      0.08668785     -0.13108941
H      -3.63333314      0.74462819     -1.24674902
H      -4.56974103     -0.60505534     -0.40755077
H      -2.70681527     -1.01208736      1.08327773
H      -1.20247146      1.03911155      1.26106298
H      -1.38280651      1.29990319     -0.46617219
H      -0.22529616     -0.88931915     -0.90464100
H      -0.08522717     -1.16944680      0.82063431
H       1.31964441      0.88545030      1.04956858
H       1.19462709      1.15529402     -0.69528293
H       4.26188220     -0.69034602     -0.30301621
H       3.60318354      0.84062630     -0.92449123
H       3.72930487      0.57308029      0.83034355
