14
b3lypvtz=-232001.88283298
C      -2.44667629     -1.08513124      0.00000097
C      -1.37112518     -0.04810750      0.00000000
O      -1.79957369      1.25546912     -0.00000278
C      -0.05590013     -0.31334502      0.00000124
C       0.97794726      0.69657424     -0.00000021
C       2.28619346      0.45917080     -0.00000020
F       2.78855389     -0.79829423      0.00000113
H      -2.02541013     -2.08771165      0.00000514
H      -3.08665487     -0.98349323     -0.88271674
H      -3.08665872     -0.98348765      0.88271525
H      -2.76039764      1.28098295     -0.00000190
H       0.24547625     -1.35046087      0.00000287
H       0.68131304      1.73680429     -0.00000145
H       3.06445674      1.20794899     -0.00000132
