15
b3lypvtz=-214533.28640429
C      -0.89773887      1.96311922      0.17286486
N      -1.39303286      0.64058697     -0.14946975
C      -0.73757633     -0.54782951     -0.00932981
N      -1.61048987     -1.62657397     -0.06593418
C       0.60974861     -0.75258204      0.16024521
C       1.68327410      0.14829413     -0.15524371
O       2.86713563     -0.10616030      0.00925470
H      -0.38123066      2.44677151     -0.65978128
H      -0.20816690      1.90022081      1.01295127
H      -1.74013822      2.59073148      0.46514288
H      -2.28129337      0.58739145     -0.61854746
H      -2.45412339     -1.53969559      0.48157296
H      -1.17216064     -2.52871662      0.01975365
H       0.91790792     -1.73337278      0.50097260
H       1.40067387      1.11791823     -0.60845895
