11
b3lypvtz=-217976.3296075
C       1.87356345     -1.77910232      0.00005885
C       1.37942665     -0.68344466     -0.00004826
C       0.73778800      0.59871987     -0.00019088
C       1.44313971      1.73666740     -0.00000729
N      -0.67053761      0.68270507      0.00003291
C      -1.37406661     -0.34898445      0.00006745
F      -2.70509882     -0.23668593      0.00021562
H       2.33281704     -2.73651091      0.00015317
H       0.92760041      2.68570761      0.00010200
H       2.52224066      1.72286855     -0.00000996
H      -1.06152088     -1.39034421      0.00004738
