14
b3lypvtz=-203641.7490692689
C       1.62439706      0.11810910      0.56063398
C       0.55458928      0.55069507     -0.45226491
C      -0.67924179      1.20160408      0.09470876
N      -1.61651795      0.25639033      0.19489323
C      -1.28322693     -1.00109911     -0.14828393
C       0.15782280     -0.98511143     -0.46038141
O       1.06086898     -1.20815259      0.68302664
H       2.64087534      0.09418387      0.14836990
H       1.63272479      0.64749896      1.51578489
H       0.92792943      1.02458959     -1.36299264
H      -0.94099230      2.24357202      0.13270160
H      -2.55553897      0.48602850      0.49081012
H      -1.98863897     -1.80853198     -0.10474371
H       0.46494922     -1.61977641     -1.29226255
