12
b3lypvtz=-226194.21111605
C      -1.25841008      0.18209362     -0.01980040
C       0.10230259      0.79108108     -0.39758784
C       0.69678869     -0.63768040     -0.16657713
N       1.80774095     -1.20910995     -0.29252779
C      -0.66585874     -1.15900197      0.18707286
O      -1.09372629     -0.33309975      1.30278800
O       0.58240222      1.87666173      0.34308156
H      -2.25451071      0.45380075     -0.33762079
H       0.16528693      1.06099746     -1.45346126
H       2.53817417     -0.53913276     -0.54237755
H      -1.09888481     -2.14368331      0.09948692
H       0.47869508      1.65707349      1.27752342
