18
b3lypvtz=-205211.63364029
C       1.84402182     -1.45663002     -0.18324703
C       0.75038456     -0.38730859     -0.28705820
C       1.33128615      0.97210884      0.11278972
O       0.43122783      2.06730930     -0.01082188
C      -0.48326689     -0.80028877      0.55074727
C      -1.73520461      0.00111503      0.29319166
N      -2.75440554     -0.37479738     -0.36126644
H       1.47946804     -2.42571044     -0.52545177
H       2.71438833     -1.19525902     -0.78757909
H       2.17941047     -1.57502150      0.85013987
H       0.43648988     -0.32323037     -1.33618803
H       1.61970644      0.95139141      1.16648615
H       2.24252956      1.15729267     -0.46868233
H       0.20392089      2.18019659     -0.93921634
H      -0.70378454     -1.85190205      0.34575059
H      -0.22122947     -0.72659875      1.61227545
H      -1.75274618      1.00866370      0.70546525
H      -2.63203072     -1.33197863     -0.70425385
