18
b3lypvtz=-205195.7361584
C       2.11381121     -1.29855536      0.10237343
C       1.40323406     -0.01236257      0.43109350
C       1.45505361      1.18306742     -0.45270861
N       0.25080686      0.36316861     -0.38442426
C      -0.90763692      0.93511946      0.29797713
C      -1.92191292     -0.16835303      0.56370270
O      -2.31400501     -0.81116325     -0.63732515
H       1.59695506     -2.15451665      0.54155412
H       2.15793734     -1.44754684     -0.97653336
H       3.13474227     -1.28678904      0.48997161
H       1.31337811      0.20473470      1.49333069
H       2.00074096      1.14413388     -1.38816917
H       1.42499188      2.16114569      0.01730266
H      -1.35232344      1.68092693     -0.36515890
H      -0.63507005      1.43645251      1.23949680
H      -1.50006811     -0.89140443      1.27559464
H      -2.82274852      0.25125485      1.01445612
H      -1.50350836     -0.93374689     -1.14849896
