13
b3lypvtz=-234671.27504633
N      -1.39098164      1.03744921      1.18066995
N      -1.68943645      1.02288189     -0.22257849
C      -0.96664076      0.22372583     -0.92199617
N       0.01836906     -0.67751630     -0.59548627
C       0.97876599     -0.45071737      0.24180647
N       1.97058798     -1.36491936      0.38512346
O       1.17457077      0.63880363      0.98551584
H      -2.03142883      1.70009563      1.59775963
H      -1.59454617      0.12346360      1.58567907
H      -1.23987134      0.21009425     -1.97391835
H       2.61207756     -1.27692444      1.15074342
H       1.88903479     -2.23549005     -0.10552341
H       0.26969905      1.04915347      1.16600483
