15
b3lypvtz=-214483.04419938
C      -1.65884919     -1.58716436     -0.52605516
C      -1.35996502     -0.16348031     -0.17167708
C      -0.15851844      0.35786250      0.07345854
C       0.10141351      1.78677429      0.42526641
O       0.92747051     -0.51272214     -0.00939940
N       2.16006999      0.07436100      0.25490605
N       3.03361227     -0.77946564      0.15417842
H      -0.75708188     -2.19350688     -0.56750728
H      -2.15722661     -1.65043097     -1.49744048
H      -2.33819687     -2.03596261      0.20403101
H      -2.19792755      0.51896088     -0.10547150
H       0.76141447      2.26661718     -0.29941992
H       0.58220431      1.88043963      1.40049088
H      -0.84516162      2.32283269      0.44719389
H       3.90674213     -0.28511527      0.35918060
