12
b3lypvtz=-257139.11804924
C      -1.60475100      1.23935104     -0.00003688
C      -1.21587119     -0.02794735      0.00000704
F      -2.14171057     -1.01599758      0.00001226
N       0.02933906     -0.63391315      0.00006109
C       1.29215338     -0.07794422      0.00002343
C       2.44879863     -0.73229433     -0.00004486
F       1.26582251      1.26178445      0.00007857
H      -2.66235907      1.44625899     -0.00007029
H      -0.89984876      2.04939299     -0.00003845
H      -0.00283187     -1.63953634      0.00005111
H       2.47576866     -1.81031301     -0.00010110
H       3.37324622     -0.18018448     -0.00003994
