17
b3lypvtz=-194385.55890307
C       0.41171797      1.89419974     -0.44470071
C      -0.11818166      0.83622486      0.53313172
C      -1.54681555      0.43898167      0.22027220
C      -1.54844825     -0.79298938     -0.27680459
O      -0.33148224     -1.40908778     -0.30252478
C       0.56682212     -0.56103276      0.47781443
C       1.96100243     -0.66221121     -0.10086448
H       1.44733621      2.16361771     -0.22857612
H      -0.18860890      2.80258147     -0.37046662
H       0.35434585      1.54571809     -1.47668363
H      -0.01960131      1.23029821      1.54746911
H      -2.40181244      1.09177071      0.28881511
H      -2.36307823     -1.37770070     -0.67697270
H       0.55854515     -0.97979737      1.48947001
H       2.66790649     -0.09496805      0.50698512
H       2.28418715     -1.70322326     -0.11199514
H       1.99885321     -0.28290497     -1.12133894
