15
b3lypvtz=-193609.15549979
C      -1.45048617      1.29134648      0.08932791
C      -0.36501393      0.30196109     -0.20511462
C      -0.62361109     -1.12891318     -0.55955548
C       0.15807330     -0.79519345      0.70771179
C       1.63041631     -0.70033049      0.53593190
C       1.88529857      0.25463928     -0.35898224
O       0.77507373      0.90882230     -0.82365001
H      -1.82659105      1.73570633     -0.83436825
H      -2.28351091      0.80074993      0.59286024
H      -1.08122888      2.09328967      0.73034380
H      -0.08187275     -1.57429843     -1.38293647
H      -1.64234990     -1.47012003     -0.43424632
H      -0.28005716     -1.01259107      1.67289314
H       2.36592985     -1.30138703      1.04399531
H       2.81993009      0.59631860     -0.77421071
