17
b3lypvtz=-215285.33033533
N      -2.00570495      0.72854308      0.16385566
C      -1.81959755     -0.71404982     -0.02212395
C      -0.40199374     -1.02441607     -0.48563500
C       0.69623110     -0.48787027      0.44644015
N       1.98696888     -1.06366551      0.04457309
C       0.73175932      1.04451108      0.42474363
O       1.13371946      1.66125084     -0.53394741
H      -1.95837338      1.21848130     -0.72260111
H      -2.90886615      0.93408881      0.57246995
H      -2.53023557     -1.15987958     -0.73105909
H      -1.99708473     -1.19437967      0.94367215
H      -0.26910093     -2.10432979     -0.56692609
H      -0.23633479     -0.60797829     -1.48470671
H       0.48495193     -0.81573481      1.46793205
H       2.26897507     -0.64157552     -0.83537181
H       2.70487959     -0.81217197      0.71596452
H       0.42211845      1.56739917      1.34746898
