14
b3lypvtz=-201310.38291257
C       0.72613533      1.38944880     -0.32057717
C       0.06021457      0.19082377     -0.30496026
N       1.05420131     -0.74690778     -0.09870287
C       2.24078987     -0.07995380     -0.00626699
N       2.07704962      1.21237515     -0.13428835
C      -1.39243433     -0.15262849     -0.41298597
N      -2.08879564     -0.49432610      0.83846994
H       0.30190084      2.37037640     -0.46045950
H       0.93042677     -1.74402927     -0.05820156
H       3.17837377     -0.58785244      0.15132415
H      -1.90651628      0.70002148     -0.85801382
H      -1.53461611     -0.98716141     -1.10526681
H      -1.68256841     -1.32324378      1.25755045
H      -1.96416133      0.25305745      1.51237878
