13
b3lypvtz=-213749.67181901
C      -2.12561008     -0.94299139      0.18698689
O      -0.82514987     -0.97226744     -0.39314376
C       0.11181060     -0.12725441      0.22899078
C      -0.22889836      1.30244287      0.04621040
N      -0.49726508      2.41131638     -0.10168240
C       1.47084566     -0.42486339     -0.39900225
N       2.57226766     -0.53508360      0.20174394
H      -2.09106498     -1.23115058      1.24295821
H      -2.72245636     -1.66536419     -0.36355609
H      -2.58105567      0.04711829      0.09761292
H       0.16380386     -0.31783509      1.30986754
H       1.43406525     -0.55555738     -1.48040434
H       2.47681736     -0.39285105      1.20983817
