19
b3lypvtz=-192736.18899966
C      -1.55026415      0.68718999     -0.10044142
C      -0.32430812      1.47848562      0.36337321
N       0.84920389      1.16664503     -0.45351709
C       1.72062405      0.09586569      0.01867811
C       0.96444578     -1.21251357      0.35409911
N      -0.25345259     -1.50467573     -0.38804102
C      -1.45379525     -0.83159942      0.10434123
H      -1.69560414      0.90205939     -1.16277599
H      -2.44051084      1.05137005      0.42484677
H      -0.53760626      2.54321575      0.24954719
H      -0.14552593      1.31308629      1.43776408
H       1.39816590      1.99783393     -0.61939974
H       2.44595684     -0.09676210     -0.77663262
H       2.30195195      0.37438647      0.91430413
H       1.66933809     -2.03945688      0.22647079
H       0.69249758     -1.21309581      1.41160518
H      -0.12551475     -1.33018611     -1.37728371
H      -1.52488963     -1.05705460      1.17311695
H      -2.32171543     -1.30406096     -0.36368816
