12
b3lypvtz=-223821.6977387
N      -3.26933564      0.56252174     -0.25841498
C      -2.31297399     -0.06378753     -0.13265282
C      -1.09885038     -0.88966150     -0.02850285
N       0.13000431     -0.24006454     -0.48391140
N       0.39564256      0.92493441      0.34734779
C       1.64569185      1.02707219      0.57754078
O       2.60987459      0.21025358      0.14686303
H      -0.96666242     -1.19540856      1.00853863
H      -1.24617698     -1.79259482     -0.62348855
H      -0.02801315      0.11867189     -1.42222145
H       2.00386033      1.84836366      1.18549343
H       2.13703893     -0.51020051     -0.31669161
