17
b3lypvtz=-194372.76145603
C       1.85482468      0.97249399     -0.17545124
C       0.66360701      0.15082746      0.22434483
C       0.72247915     -1.33526492      0.43499148
C      -0.12905161     -0.74826848     -0.67750183
C      -1.60030632     -0.49338512     -0.36957263
C      -1.55079522      0.78209884      0.49133145
O      -0.24469005      0.82538347      1.08097672
H       2.43308599      1.26068205      0.70461916
H       1.54361570      1.88403903     -0.68946147
H       2.50901247      0.40705884     -0.84027774
H       1.62608037     -1.85843678      0.14911590
H       0.21565554     -1.73339145      1.30430047
H       0.17422281     -0.91754130     -1.70151157
H      -2.05161350     -1.32661977      0.17254538
H      -2.18015759     -0.33853570     -1.27971165
H      -1.70483758      1.67355190     -0.12853573
H      -2.28113184      0.79530791      1.29979845
