13
b3lypvtz=-213774.7424101
N      -2.50864511      0.92844180     -0.59720979
C      -1.24709593      1.05294307     -0.59768949
C      -0.22631591      0.08689250     -0.11614552
N      -0.60998838     -1.16718823      0.18007534
C       1.06487520      0.52807264      0.04038970
C       2.12824499     -0.32378258      0.49551717
O       2.00249764     -1.50973571      0.80127686
H      -2.81436122      0.04256088     -0.18894240
H      -0.83119385      1.98302054     -0.98298930
H      -1.49835243     -1.51871331     -0.12943908
H       0.12193870     -1.80696641      0.47157901
H       1.29199089      1.55829704     -0.19187023
H       3.12620541      0.14605777      0.55764773
