16
b3lypvtz=-204427.16765016
C       2.99455979     -0.67389783     -0.21577685
C       2.06990882      0.05216823      0.02375424
C       0.93185859      0.92360635      0.29042948
C      -0.41129673      0.40102775     -0.27391250
N      -1.51502363      1.35713247     -0.13778804
C      -0.85040788     -0.90466114      0.39008244
O      -2.06550645     -1.37331975     -0.15900116
H       3.81487842     -1.31440014     -0.42361948
H       0.83071756      1.07179716      1.37134108
H       1.12898385      1.91005083     -0.13880372
H      -0.28823316      0.20592596     -1.34122791
H      -1.40990826      2.14544124     -0.76352470
H      -1.56962705      1.72181912      0.80749565
H      -0.09945370     -1.67962357      0.24127193
H      -0.94523978     -0.73691531      1.47527644
H      -2.61508939     -0.58557038     -0.27569687
