15
b3lypvtz=-214527.63336597
C       2.55943118      0.59571544      0.36668319
C       2.02453424     -0.55596910     -0.05731027
N       0.69193818     -0.91721139     -0.17340033
C      -0.44988048     -0.12070523     -0.08604103
O      -0.27012175      1.19719780     -0.36635984
N      -1.55924303     -0.65344904      0.18612809
C      -2.77301768      0.14058154      0.16023037
H       3.63215296      0.71086440      0.34020003
H       1.98509431      1.41143516      0.78107006
H       2.68460104     -1.35060655     -0.38568384
H       0.47264629     -1.89953754     -0.16959321
H       0.62028006      1.34589516     -0.71210179
H      -3.57061412     -0.44947260     -0.29426001
H      -2.67839145      1.08391651     -0.38379578
H      -3.08852177      0.36876946      1.18254437
