19
b3lypvtz=-195135.068612
C      -0.84890945      1.79491440      0.46833593
C      -0.74277662      0.49940611     -0.30261286
C      -0.55216714     -0.82605291      0.38542846
C      -1.30372830     -2.06187338     -0.04802406
C       0.56153457     -0.25139530     -0.45900621
C       1.84784756      0.22934679      0.16003166
O       2.43479588      1.33615756     -0.52969027
H      -0.49293073      2.63860203     -0.12556859
H      -1.88615332      1.99119696      0.74926460
H      -0.26183409      1.77233002      1.38658679
H      -1.37922221      0.46373928     -1.18087941
H      -0.38712640     -0.75811108      1.45656381
H      -2.29302573     -2.10673903      0.41369302
H      -0.76733446     -2.97318026      0.22717936
H      -1.44444231     -2.07560061     -1.13070581
H       0.70039090     -0.73591100     -1.42201878
H       1.68204617      0.58313283      1.17696491
H       2.56098879     -0.60237358      0.22191090
H       2.57214692      1.08221118     -1.44735348
