10
b3lypvtz=-251383.63000133
C       0.01211160      0.18242344     -0.00139359
N       0.74376150     -0.76035356      0.43688044
C       2.15111887     -0.62831443      0.17084066
O       2.67844655      0.27540811     -0.41718613
C      -1.44879570      0.17785801      0.19899972
N      -2.17038214      1.10771703     -0.23280745
F      -1.91964886     -0.88714534      0.86912751
H       0.39520880      1.04598890     -0.54545078
H       2.71442317     -1.47718249      0.57976291
H      -3.15624379      0.96360033     -0.01734711
