14
b3lypvtz=-203707.79361936
O       2.56243261     -1.32133524     -0.17415214
C       2.00552834     -0.27284974      0.09099039
N       0.67120477     -0.07543700      0.03534652
C      -0.01011810      1.18414503      0.35337034
C      -1.45045201      0.82453538      0.12095460
C      -1.58423301     -0.43681815     -0.26756173
C      -0.25981837     -1.13627176     -0.36166491
H       2.55682191      0.63094656      0.40853441
H       0.17363619      1.49702977      1.38748118
H       0.31979018      2.00154158     -0.29779306
H      -2.25096582      1.53528393      0.26390662
H      -2.51677116     -0.93153541     -0.49636940
H      -0.03604275     -1.49959481     -1.36970951
H      -0.18101277     -1.99964014      0.30666668
