13
b3lypvtz=-242063.67537209
C      -1.31250356     -0.82933206     -0.00546243
C      -0.40848733      0.33088599     -0.24852813
C      -0.58859928      1.57739885      0.16447596
F      -1.66482599      1.92846979      0.89397433
O       0.69023081      0.09245491     -1.07677944
C       1.82447768     -0.44610693     -0.51790905
N       2.11441918     -0.63523913      0.68842399
H      -1.69716761     -1.20739347     -0.95521770
H      -2.15177645     -0.53855960      0.62225689
H      -0.77717690     -1.64783468      0.48003665
H       0.07738817      2.39950804     -0.05263814
H       2.51194274     -0.70350922     -1.31738610
H       1.38207855     -0.32074247      1.32475319
