15
b3lypvtz=-191185.46515432
C      -3.33977164     -0.00053167      0.11284979
N      -2.21143174      0.00204880     -0.47031931
C      -1.05868650     -0.00187786      0.31072807
C       0.14507727      0.00089242     -0.26618362
N       1.33187626     -0.00312473      0.49684409
C       2.46458014      0.73898312     -0.08343755
C       2.46489842     -0.73772682     -0.09221593
H      -3.45306447     -0.00547180      1.20299308
H      -4.24675523      0.00253816     -0.48437945
H      -1.14170297     -0.00720567      1.39793890
H       0.21337613      0.00620453     -1.35500954
H       2.29883948      1.24776226     -1.02669046
H       3.06246038      1.28513633      0.63437187
H       2.29923017     -1.23527480     -1.04147278
H       3.06302931     -1.29214526      0.61902383
