15
b3lypvtz=-191212.80389094
C       3.54650697      0.23373875      0.00003978
N       2.46036726     -0.42762672      0.00000208
C       1.26096471      0.27119200      0.00000705
C       0.09008148     -0.38391839     -0.00000635
N      -1.11490356      0.30317133     -0.00000289
C      -2.19586740     -0.37166909     -0.00000425
C      -3.53893566      0.27336926     -0.00001415
H       4.49276024     -0.29866659     -0.00010663
H       3.58202056      1.32897974     -0.00011836
H       1.26883984      1.36170346      0.00003991
H       0.09126686     -1.47467881     -0.00000290
H      -2.17517962     -1.47040858     -0.00004452
H      -4.11427759     -0.03972545     -0.87633811
H      -4.11432928     -0.03976850      0.87626013
H      -3.44281381      1.35691957      0.00001420
