14
b3lypvtz=-201269.98160616172
C       0.02296772      1.10372923      0.75884098
C       0.16728429     -0.14797339     -0.06898751
C      -0.90855783     -0.70879559     -0.65775417
N      -2.20095989     -0.23534109     -0.58154290
C       1.47410302     -0.76529071     -0.24076351
N       2.55902816     -0.29572187      0.28563377
N       3.51484658      0.12216904      0.75219480
H      -0.37752753      1.93197226      0.16573188
H      -0.65600336      0.94865073      1.60326805
H       0.97289688      1.43830148      1.17157762
H      -0.80161378     -1.60800656     -1.25137359
H      -2.94647486     -0.71065423     -1.04814116
H      -2.42897649      0.58994306     -0.06210159
H       1.60898710     -1.66298237     -0.82658264
