14
b3lypvtz=-224616.86836903
C       1.28794753      1.24839027      0.59038020
C       1.08522582     -0.11536740     -0.02435784
N       2.23375587     -0.81907630     -0.23628910
N      -0.03303854     -0.67199081     -0.31823254
C      -1.26013962     -0.02818737     -0.15031177
N      -1.68386882      1.06004017     -0.64721533
O      -2.11668510     -0.76021737      0.60878836
H       1.99094726      1.18040884      1.42148103
H       0.34983444      1.66717453      0.94104250
H       1.71183334      1.93358628     -0.14700168
H       2.16823814     -1.66896499     -0.77075918
H       3.12344181     -0.35710886     -0.19748841
H      -0.96296530      1.49179933     -1.21563564
H      -1.66247884     -1.57948133      0.83669942
