15
b3lypvtz=-216929.97730123
O       2.54820381     -0.33942682     -0.20059708
C       1.24567767      0.01804034     -0.03254578
C       0.67320572      1.21911829     -0.10503179
C      -0.80339347      1.13398169      0.17480012
C      -1.09999268     -0.38438615      0.18944068
O      -1.74888212     -0.69339145     -1.04609046
C       0.27912788     -1.07599192      0.30758228
H       3.07015439      0.44387418     -0.40672167
H       1.18907737      2.14621034     -0.31775057
H      -1.06808553      1.59727527      1.13109291
H      -1.42026593      1.60894207     -0.59084010
H      -1.75401578     -0.65676510      1.02272366
H      -1.93872585     -1.63652644     -1.06355853
H       0.46628734     -1.45804556      1.31617241
H       0.36182717     -1.92280875     -0.37867608
