17
b3lypvtz=-191986.41903118
C      -2.99183895     -0.44086152      0.08219359
C      -1.72100498     -0.80464358     -0.06849089
C      -0.54090610      0.07918553     -0.03371618
N      -0.77079094      1.44359989      0.01746452
N       0.60984752     -0.48311290     -0.00363948
C       1.79662070      0.34970407      0.04920621
C       3.05732582     -0.50474202      0.01077914
H      -3.78777271     -1.17176893      0.04414105
H      -3.29326958      0.58208370      0.27070377
H      -1.45890191     -1.84403240     -0.21579621
H      -1.64027090      1.77325108     -0.36624337
H       0.01189566      2.04402629     -0.17880282
H       1.79650963      0.96195585      0.96257853
H       1.81585657      1.05883401     -0.79476798
H       3.08679838     -1.09925525     -0.90286755
H       3.07465161     -1.19247774      0.85660379
H       3.95417318      0.11642993      0.04977988
