11
b3lypvtz=-238905.03547022
N       3.19354738      0.21039489     -0.00026039
C       2.10293615     -0.42507199      0.00016642
N       0.83718776      0.19733921      0.00005963
C      -0.18032988     -0.56105793      0.00027584
C      -1.55961392     -0.03027683      0.00003380
N      -2.62795533     -0.68794577     -0.00047037
F      -1.62255934      1.29990180     -0.00071341
H       3.00623607      1.21587672     -0.00056141
H       2.12125806     -1.51969939      0.00045473
H      -0.11152969     -1.65495073      0.00066652
H      -2.44383227     -1.68829596     -0.00000538
