19
b3lypvtz=-192741.43507926
C       2.70202719      0.39449406     -0.09655992
C       1.83787819     -0.71936460     -0.70678335
C       0.50811715     -0.86533615     -0.00489890
N       0.38005186     -1.70720513      0.93431174
C      -0.60827737      0.04460131     -0.49738574
N      -1.74142623      0.08578221      0.40794851
C      -2.92743779      0.72330955     -0.14968312
H       2.91322204      0.17963941      0.95120318
H       2.20842801      1.36679536     -0.14994889
H       3.65254980      0.47815711     -0.62513876
H       1.67357331     -0.51226252     -1.76874995
H       2.36217637     -1.67131683     -0.62916199
H      -0.57660363     -1.67030042      1.29526148
H      -0.95251942     -0.35055583     -1.46018374
H      -0.18937651      1.03919550     -0.72327795
H      -1.47282662      0.54998246      1.26734527
H      -2.75797157      1.74720742     -0.51612357
H      -3.71099562      0.75799939      0.60727764
H      -3.30058916      0.12917771     -0.98609939
