13
b3lypvtz=-169537.89816194
C       2.96714136     -0.01084484     -0.00007546
C       1.76395035      0.04653402      0.00001027
C       0.35460101      0.07331094      0.00000512
C      -0.45877833      1.15833660      0.00001363
C      -1.84903061      0.72666723      0.00001080
C      -1.90169063     -0.61771708     -0.00000055
C      -0.50841027     -1.16864311     -0.00001151
H       4.02752015     -0.04936667      0.00007097
H      -0.12764434      2.18604092      0.00002818
H      -2.69511961      1.39812716      0.00001551
H      -2.79059193     -1.22971159     -0.00000862
H      -0.30795967     -1.79543760      0.87536526
H      -0.30796647     -1.79541100     -0.87540959
