16
b3lypvtz=-204443.79785603
C      -1.99735674      0.13700969      0.10635038
C      -0.59037992     -0.04989769     -0.42931095
C       0.15662836     -1.39806720     -0.17260342
C       1.41104021     -0.57626752      0.06276810
N       2.62960266     -0.83460767     -0.10995263
C       0.58969278      0.68709520      0.28094077
O       1.13919668      1.86459414     -0.25905143
H      -2.34248155      1.16387231     -0.03596048
H      -2.04374723     -0.08792692      1.17488169
H      -2.70688820     -0.51986830     -0.40055110
H      -0.54047575      0.19139848     -1.49259631
H      -0.19122133     -1.89897695      0.73405306
H       0.20134196     -2.12231975     -0.98333649
H       3.18966242      0.01162407      0.01750750
H       0.36091738      0.80235357      1.34891576
H       0.73456827      2.62998454      0.15814554
