13
b3lypvtz=-216192.82472222
C       1.91709243     -0.11075080     -0.00034217
C       0.43238113     -0.00524815      0.00219458
C      -0.51235562     -0.93624631     -0.11707326
C      -1.86210596     -0.29765199     -0.04884092
O      -1.60278850      1.09794674      0.12191897
C      -0.24715908      1.30982168      0.15713698
O       0.23629236      2.39838145      0.29279308
H       2.34119591      0.49096870     -0.80649533
H       2.32935066      0.28531941      0.92975851
H       2.24577045     -1.14184837     -0.12048991
H      -0.37101779     -1.99987375     -0.24494777
H      -2.44763740     -0.43904291     -0.96156380
H      -2.45921858     -0.65187570      0.79605106
