12
b3lypvtz=-223850.66170604
N       2.65368818     -0.33311881     -0.00027358
C       1.42365492     -0.63265287      0.00053223
C       0.27249981      0.33610958      0.00003002
N       0.35190311      1.60149515     -0.00010788
C      -1.11385423     -0.30203276     -0.00012360
N      -2.12981287      0.58307345     -0.00034324
O      -1.24307408     -1.51438131      0.00036452
H       2.80681021      0.68123463     -0.00140712
H       1.13724678     -1.67976962      0.00159509
H       1.32031745      1.93278146      0.00020587
H      -3.07584529      0.24521157     -0.00029431
H      -1.92829698      1.56869653     -0.00056199
