13
b3lypvtz=-234668.34559365
N       2.63256888     -0.73255618     -0.15799585
C       1.59359312     -0.02598004      0.00204424
O       1.54518919      1.32173730      0.04543962
N       0.36133951     -0.64088092      0.19153760
N      -0.77087028      0.13037016      0.06736296
C      -1.90140498     -0.45284847      0.02146304
N      -3.07651487      0.23853613     -0.18110266
H       3.45562967     -0.14458371     -0.23614953
H       0.60504371      1.57059620      0.09487506
H       0.33717166     -1.61957338     -0.06208453
H      -2.00999942     -1.53643230      0.08212293
H      -3.00950830      1.23863232     -0.06492782
H      -3.89943490     -0.16219912      0.23892094
