16
b3lypvtz=-202056.78160523
C      -1.89040141     -1.37115588     -0.10156842
C      -1.58082730     -0.06252906     -0.04429325
N      -2.47307267      0.92861919      0.37080486
N      -0.33640443      0.47359738     -0.39376142
C       0.72057063     -0.09807431      0.03877852
N       1.96376274      0.25258893     -0.37310135
C       3.17105711     -0.11646167      0.33726916
H      -2.87691747     -1.72548475      0.16216246
H      -1.17408423     -2.09286253     -0.45973785
H      -3.44650362      0.70755135      0.23214720
H      -2.23075211      1.83914567      0.01189958
H       0.69439367     -0.92485144      0.75448181
H       2.00217762      1.04470175     -0.99598648
H       3.01600258     -1.07196493      0.83708507
H       3.99652725     -0.23694167     -0.36424873
H       3.46309365      0.61980899      1.09340082
