12
b3lypvtz=-202934.25548081
C      -1.57263878     -1.42803761      0.00000104
C      -0.44700440     -0.71046046      0.00000047
N       0.85313668     -1.27767387      0.00000032
C       1.64968934     -0.28726802     -0.00000006
O       1.10898794      0.96375332     -0.00000058
C      -0.27398316      0.75691824     -0.00000042
C      -1.12173522      1.77910328     -0.00000093
H      -1.52613016     -2.50651830      0.00000151
H      -2.54327309     -0.95465935      0.00000092
H       2.72872542     -0.32350293     -0.00000013
H      -2.18586304      1.60137766     -0.00000078
H      -0.76751353      2.79863604     -0.00000135
