13
b3lypvtz=-211359.25548343
C      -2.47458539      0.21375629     -0.55067560
C      -1.56184102     -0.32488549      0.55948291
C      -0.11404484     -0.13697584      0.25898107
N       0.71861392     -1.11585552     -0.07286349
N       1.84921268     -0.44719519     -0.25219542
H       2.71476888     -0.89204466     -0.51373981
N       1.75606661      0.85482371     -0.05262432
N       0.51260458      1.07040765      0.27301341
H      -2.29705191      1.27628003     -0.71575369
H      -2.29778052     -0.31036286     -1.49074719
H      -3.52235402      0.08002753     -0.27997934
H      -1.78708324      0.18774907      1.49668963
H      -1.74132173     -1.38828573      0.71672084
