17
b3lypvtz=-217678.33158952
C      -1.69927693     -0.61323581     -0.33544954
C      -0.76943816      0.01903567      0.70205895
C       0.44197276      0.69406841      0.08938436
C       0.48552638      2.01465303     -0.05514559
C       1.60658897     -0.16600961     -0.32063875
O       1.23241871     -1.03125927     -1.40182384
O      -0.28946079     -0.96142664      1.63277375
H      -1.17257847     -1.37341990     -0.90739879
H      -2.56294488     -1.06414524      0.16238537
H      -2.07172377      0.14398804     -1.02631606
H      -1.33052300      0.78655378      1.24847358
H       1.32897700      2.50440111     -0.52473979
H      -0.31898151      2.65271102      0.29016113
H       1.92209963     -0.75777826      0.54214202
H       2.43798009      0.47838812     -0.62349224
H       1.79055767     -1.81272140     -1.36832501
H      -1.03119367     -1.51380304      1.89595044
