18
b3lypvtz=-181881.00033917
C       2.16708297      0.36071318     -0.26735822
C       1.38230400     -0.19036704      0.89766029
C       0.29220098     -1.18102332      0.82495651
C      -0.58521277     -1.01593004     -0.40750983
C      -0.78763860      0.45501330      0.03157557
C      -2.20671126      0.85236899      0.37707761
N       0.02680138      0.24953357      1.29208219
H       2.44313221      1.40211821     -0.08659911
H       1.63113342      0.31369442     -1.21352118
H       3.09058060     -0.20952194     -0.38537067
H       1.98568492     -0.28812840      1.79494356
H       0.23440180     -2.01697737      1.51166995
H      -0.11947804     -1.20873330     -1.37571183
H      -1.50868567     -1.58973905     -0.34663220
H      -0.34623968      1.20298896     -0.63035882
H      -2.22162209      1.82934016      0.86285720
H      -2.82330293      0.90402125     -0.52327343
H      -2.65453124      0.13072842      1.06251241
