16
b3lypvtz=-181153.45127182
C       2.16112442     -0.34677814      0.14736951
C       0.82587036     -0.39486826      0.07848405
C      -0.02787558     -1.49342556     -0.33873641
C      -1.31271591     -1.14366398     -0.13503425
N      -1.44798896      0.10003789      0.46170926
C      -0.11722945      0.75071418      0.45557712
C      -0.05844876      1.91740993     -0.53192909
H       2.76873643     -1.19499273     -0.13748125
H       2.68292512      0.53517802      0.49480454
H       0.31661803     -2.44553891     -0.70724183
H      -2.19710911     -1.72781666     -0.34449823
H      -2.23147917      0.66910354      0.17764826
H       0.10729001      1.11697026      1.45941236
H      -0.77343238      2.69800015     -0.26058505
H      -0.27915793      1.57435128     -1.54384809
H       0.93893190      2.35847798     -0.53345389
