14
b3lypvtz=-227010.70175725
C       0.45088952      1.77491623      0.34161955
C       0.31637830      0.24222651      0.45758012
C       1.36579054     -0.41199018     -0.43232066
O       2.33209273     -0.98560476     -0.00468777
C      -1.07265368     -0.22907289      0.08495567
N      -1.89406530     -0.88864421      0.78250262
O      -1.40303788      0.13583507     -1.17879572
H       1.44432162      2.08797266      0.66215207
H       0.29128390      2.10667918     -0.68337269
H      -0.28635391      2.26648135      0.97640617
H       0.52657557     -0.07233771      1.47882529
H       1.19345757     -0.30294753     -1.52048619
H      -1.52276997     -1.10980905      1.70068456
H      -2.29006500     -0.21596768     -1.34463500
