17
b3lypvtz=-215272.46214915
C       2.78006519     -0.62531182     -0.07535038
O       1.55468150     -0.03248398     -0.44603710
C       0.52245805     -0.24687900      0.51549808
C      -0.68793576      0.53438452      0.11757129
N      -0.45188696      1.93493604      0.12115659
C      -1.88970708      0.00085803     -0.14048287
N      -2.25509771     -1.35921102     -0.19264555
H       3.50155304     -0.39953889     -0.85868771
H       3.15037432     -0.22648372      0.87765993
H       2.68943008     -1.71532319      0.01837774
H       0.31096475     -1.31928418      0.59748623
H       0.87234346      0.10005404      1.49871583
H      -1.22663006      2.45798959     -0.26408127
H       0.38495555      2.15913778     -0.40392502
H      -2.70623171      0.66663352     -0.40011350
H      -3.13362299     -1.54922047      0.26996901
H      -1.54993067     -1.99328723      0.15226370
