15
b3lypvtz=-212087.60718559
C      -3.22379818     -0.50638889      0.06870050
N      -1.77885215     -0.45731715     -0.09493450
C      -1.16090705      0.79370089     -0.03283649
C       0.16088228      1.00331759      0.00106319
N       1.09810154     -0.02989946     -0.03999112
N       2.39072673      0.21775700      0.15431546
N       3.12865151     -0.76684718     -0.08959630
H      -3.56359021     -1.53474877     -0.04636295
H      -3.57129037     -0.13319284      1.04117348
H      -3.70034306      0.08661471     -0.71270840
H      -1.30499501     -1.16405247      0.44998767
H      -1.81998525      1.65035025     -0.06075640
H       0.57868441      1.99486683      0.05650978
H       0.86968390     -0.93481688     -0.44438065
H       4.07915591     -0.45282263      0.10936574
