18
b3lypvtz=-181893.74660653
C      -2.66331114     -0.32497274      0.26958819
N      -1.70511421      0.45523874      0.02626304
C      -0.60717533     -0.03315914     -0.79366298
C       0.73010217      0.13269509     -0.09019129
C       1.11602580      1.56278952      0.22265811
C       1.81830264     -0.83511887     -0.47441046
C       1.14200049     -0.95060250      0.87018598
H      -3.49300159      0.01844373      0.88423658
H      -2.71665663     -1.35400301     -0.11056681
H      -0.75083978     -1.08405892     -1.08467891
H      -0.59780026      0.56665693     -1.71015768
H       0.36442478      2.03705995      0.85403890
H       2.07599216      1.60474747      0.73931767
H       1.20414566      2.15242177     -0.69394992
H       1.60086121     -1.59132190     -1.21732283
H       2.83456987     -0.46548208     -0.50447890
H       0.46757468     -1.78208241      1.02749709
H       1.70236248     -0.66407362      1.74980023
