14
b3lypvtz=-224575.05308924
N       1.05073824      1.69749622      0.11596155
N      -0.10428320      1.20005155      0.03330870
C      -0.17310754     -0.17824331      0.15861618
C      -1.41240926     -0.72826590      0.02033622
N      -2.56656773     -0.04659418     -0.15769120
C       1.05356931     -0.99747815      0.44939237
O       2.05392659     -0.89391488     -0.55769451
H       0.94608485      2.71169998      0.01149500
H      -1.51859674     -1.80438835      0.08237666
H      -3.39361522     -0.52592189     -0.45965794
H      -2.50415382      0.94454835     -0.32398320
H       1.46603915     -0.69746243      1.42127053
H       0.78419115     -2.05235282      0.51814928
H       2.31046223      0.03822081     -0.55896364
