15
b3lypvtz=-214511.71062055
C      -2.35412593     -0.82742114      0.05058751
N      -0.91812231     -0.66476842      0.01148042
C      -0.32579070      0.56719430     -0.04870686
N      -0.86649228      1.72152995      0.04844185
C       1.16412034      0.52077113     -0.21161408
C       2.01357256     -0.26039328      0.69615834
O       1.73635955     -0.72802003     -0.62873153
H      -2.58945724     -1.88939985      0.06874503
H      -2.77087633     -0.37621913      0.95386106
H      -2.85159220     -0.37585265     -0.81519234
H      -0.35881943     -1.42253684     -0.34747423
H      -1.87470144      1.66606932      0.17456139
H       1.57688838      1.40456562     -0.68178239
H       1.55044639     -0.83179853      1.49300059
H       3.03691264      0.05493155      0.86850525
