13
b3lypvtz=-237095.12504276
C      -1.51033319      0.60847476     -0.45377074
O      -2.33943680     -0.12473162     -0.92828994
C      -0.38961673      0.10640378      0.44842701
C       0.91887252      0.78318808     -0.02748780
O       1.03071196      1.99523911      0.00752604
N       1.85017784     -0.07885111     -0.47786787
N      -0.34508826     -1.34325610      0.48202186
H      -1.49941805      1.69299959     -0.64509173
H      -0.58319152      0.56238763      1.42719795
H       1.63949019     -1.06417685     -0.45298411
H       2.72545433      0.27168098     -0.82512169
H      -1.17079751     -1.71082071      0.01801981
H      -0.32682480     -1.69853751      1.42742121
