15
b3lypvtz=-214523.23143094
C      -3.15193639     -0.65596829      0.17995338
N      -1.81054677     -0.37993028     -0.29575589
C      -1.22892846      0.84140555     -0.05665326
C       0.09655993      1.05939007      0.05057369
N       0.98620388     -0.00790329      0.00106197
C       2.22899937      0.18862562      0.03432112
O       3.08857767     -0.86521070      0.00392337
H      -3.51670172     -1.57747333     -0.27291795
H      -3.22178866     -0.75676324      1.27108352
H      -3.82134365      0.14986564     -0.12581922
H      -1.15450352     -1.14524750     -0.22902262
H      -1.91412498      1.67827003      0.00085867
H       0.46689526      2.07577874      0.16047958
H       2.70248402      1.17503001      0.08869164
H       3.99181903     -0.53551302      0.02893901
