13
b3lypvtz=-239665.21363087
N       1.00002303     -1.96828657      0.00828414
C       1.50257799     -0.64571100      0.02443681
C       0.80416185      0.49855446     -0.04452412
N       1.36875285      1.77811393      0.15610235
N      -0.56735661      0.58586994     -0.35711009
C      -1.41705020     -0.05208380      0.29245571
F      -2.71074389      0.01316641     -0.05400931
H       1.60510974     -2.58659227     -0.51635085
H       0.06691947     -2.03258168     -0.37951471
H       2.57557610     -0.58279752      0.15221867
H       0.99397448      2.44721203     -0.50525921
H       2.37822066      1.77160944      0.10765673
H      -1.27573847     -0.68685138      1.16428588
