18
b3lypvtz=-181900.98487811
N      -2.13691201      0.07878685      0.00000073
C      -0.69353602      0.03555380      0.00000003
C       0.14003522      1.34162271     -0.00000200
C       1.57344131      0.72966974     -0.00000257
C       1.19590359     -0.76398874     -0.00000084
C       0.06232802     -0.81418591      1.05954083
C       0.06232594     -0.81418785     -1.05954032
H      -2.47620942      0.58230545     -0.81336957
H      -2.47620853      0.58232272      0.81336071
H      -0.06420674      1.95061320      0.88279939
H      -0.06420821      1.95061148     -0.88280423
H       2.15138335      1.00926247      0.88187066
H       2.15138198      1.00926084     -0.88187724
H       2.00860261     -1.48579083     -0.00000105
H      -0.37699174     -1.80426728      1.16632827
H       0.25129219     -0.36889022      2.03873310
H      -0.37699368     -1.80426958     -1.16632517
H       0.25128814     -0.36889386     -2.03873374
