16
b3lypvtz=-181137.32661267
C      -2.22270387     -0.35249359      0.05228325
C      -0.78099784     -0.04235493      0.36878329
C       0.31851761     -0.84240347     -0.30416945
C       0.06006822      0.61019601     -0.70029234
N       1.26313764      1.33488337     -0.35313237
C       2.10006060      0.46313035      0.35608275
C       1.66095703     -0.80138267      0.34321073
H      -2.59290937     -1.18563963      0.65447998
H      -2.86714600      0.50956727      0.24295721
H      -2.34641794     -0.62821794     -0.99731301
H      -0.57870722      0.25181066      1.39285370
H       0.03753299     -1.66843441     -0.94494377
H      -0.41071033      0.89088625     -1.63426177
H       1.15377471      2.27258292      0.00385712
H       3.00869975      0.84871626      0.79419744
H       2.19684401     -1.66084647      0.71114504
