11
b3lypvtz=-213002.41093461492
C      -1.78193139     -0.83875476      0.48232930
C      -0.63715842     -0.19860682      0.23151332
C      -0.59742404      0.95421959     -0.72171584
O      -1.55093700      1.37524809     -1.32400019
N       0.55854050     -0.57454740      0.84796869
C       1.69578616     -0.15006836      0.76287458
N       2.83539328      0.26470060      0.88534911
H      -1.82187941     -1.66992352      1.17037347
H      -2.68451663     -0.51405329     -0.01329002
H       0.40491867      1.41251859     -0.84319076
H       3.57920828     -0.06073272      0.28420870
