14
b3lypvtz=-227026.31263046
C      -1.95902070     -1.03883861     -0.54757928
C      -1.04795782     -0.69132071      0.62496831
N       0.20930453     -0.05547861      0.20819808
C       1.37193655     -0.80785959      0.08131863
O       2.44185115     -0.38688060     -0.27895801
C       0.22577195      1.31144954     -0.05852873
O      -0.75111018      2.01379285      0.03756753
H      -2.87189461     -1.51038282     -0.18107634
H      -2.23755407     -0.14092320     -1.09691718
H      -1.47172704     -1.73183702     -1.23509825
H      -0.78557054     -1.58609327      1.19007946
H      -1.54888924     -0.00225353      1.30217889
H       1.20700110     -1.86247318      0.35895373
H       1.21824492      1.66708076     -0.35552484
