15
b3lypvtz=-191184.09150471
C      -0.83818782     -1.63326694      0.57175447
C      -0.64673083     -0.37873328      0.16125978
C      -1.57306299      0.74044176     -0.29602262
C      -0.29920173      1.61248351     -0.48411405
N       0.46427429      0.45339613     -0.02876774
N       1.78740449      0.39641119      0.10482548
C       2.36721109     -0.66936618      0.51381914
H      -0.04307808     -2.29771540      0.86386527
H      -1.84770246     -2.01603587      0.61888512
H      -2.11986188      0.52879054     -1.21242399
H      -2.26176376      1.09785813      0.46655348
H      -0.07559274      1.90830072     -1.51017824
H      -0.21660497      2.47749083      0.17564233
H       3.44514115     -0.63206107      0.59481962
H       1.85775624     -1.58799408      0.77872193
