14
b3lypvtz=-180301.96489161
C       2.37474485     -1.36807461      0.76006013
C       1.46916626     -0.58180259      0.71199072
C       0.40787137      0.40161354      0.68267199
C      -0.06201243      1.04695293     -0.65017067
C      -1.36360866      1.33200033      0.11716230
N      -1.05778670     -0.11772243      0.54246631
C      -0.70407297     -0.32023601     -0.94731765
H       3.17101636     -2.06866923      0.80405655
H       0.50412769      1.08356896      1.52884594
H       0.51274156      1.70114886     -1.31034906
H      -1.33536770      2.04451448      0.94165229
H      -2.28354715      1.42000105     -0.45795113
H      -0.05214428     -1.17093878     -1.13032841
H      -1.58112820     -0.33783754     -1.59278932
