20
b3lypvtz=-182659.70431768
C      -3.16393233      0.04071932      0.02203824
C      -1.99475844     -0.29954325     -0.50400973
C      -0.77521890     -0.68632247      0.28134149
N       0.42229885      0.03530170     -0.14830834
C       0.35124909      1.44718756      0.20242581
C       1.64536041     -0.60226611      0.33645077
C       2.90808479     -0.10874615     -0.36282539
H      -3.31018718      0.09065908      1.09502888
H      -4.01907714      0.27586882     -0.59802952
H      -1.87345790     -0.33041707     -1.58274444
H      -0.97380536     -0.56228797      1.36085857
H      -0.58513213     -1.75142919      0.11703787
H      -0.57454829      1.87598836     -0.17770576
H       0.37919651      1.61188631      1.29446484
H       1.17940197      1.99406784     -0.24474494
H       1.54493777     -1.67438163      0.15627916
H       1.75642033     -0.47636164      1.42920117
H       3.76639385     -0.70151475     -0.04207635
H       3.12979064      0.93356102     -0.13346215
H       2.80605347     -0.20571080     -1.44450819
