14
b3lypvtz=-222164.98664588
N       3.12195079      0.29311725     -0.10698430
N       2.14810520     -0.46366415      0.14461912
N       0.97047384      0.10393657     -0.05689387
C      -0.21471613     -0.62460223      0.06750567
C      -1.42326601     -0.04255813      0.02333094
N      -1.56418165      1.35831391     -0.00816515
N      -2.62554853     -0.75708064     -0.13470938
H       3.95448278     -0.26018295      0.09672185
H       0.95928546      1.05354141     -0.42116290
H      -0.08709256     -1.68867791      0.18461577
H      -1.23096521      1.83692333      0.81613330
H      -2.49173103      1.65728242     -0.26740661
H      -2.48391218     -1.74481491     -0.29011966
H      -3.28316378     -0.61017197      0.62297924
