14
b3lypvtz=-201288.34552659
N       1.64955623     -1.29314127     -0.05577380
C       0.53303650     -0.70587418      0.03904649
C      -0.88855268     -1.23171235      0.14687920
N      -1.76740562     -0.10815873     -0.22389082
C      -1.04928308      1.12103553      0.17091595
C       0.42506278      0.79902238      0.04316886
N       1.36653844      1.63494569     -0.05995239
H       1.55340494     -2.30907646     -0.04081643
H      -1.08934256     -1.52905817      1.18264027
H      -1.06640781     -2.10206859     -0.48388741
H      -1.88456324     -0.10607252     -1.23007917
H      -1.28618659      1.36484774      1.21204758
H      -1.34274915      1.97177996     -0.43985718
H       2.25445784      1.12983297     -0.14855714
