12
b3lypvtz=-202971.25949486
C      -0.87094631     -1.11767357     -0.00151269
C      -1.55381679      0.09803995     -0.04748907
C      -0.80576244      1.26278810     -0.05065777
N       0.53136721      1.27825773     -0.01188176
C       1.16051365      0.11433752      0.03148662
C       0.51003340     -1.12335308      0.03893398
O       2.51196472      0.13719975      0.07058560
H      -1.41555082     -2.05292104      0.00261026
H      -2.63307573      0.13796759     -0.07982391
H      -1.28908025      2.23246851     -0.08564837
H       1.08542164     -2.03674424      0.07526373
H       2.76893169      1.06963278      0.05813339
