15
b3lypvtz=-214507.09670654
C       3.13866850     -0.33136896     -0.47072377
N       2.06348110     -0.07639749      0.47306798
N       0.94195216      0.45703914     -0.08569205
C      -0.17953466      0.28691794      0.49144386
C      -1.41020980      0.93422459     -0.05360864
C      -2.57632888     -0.00186770     -0.27043166
O      -2.58176830     -1.17599060     -0.00608200
H       2.90044466     -1.11000416     -1.20521528
H       3.36118173      0.58996236     -1.00607173
H       4.02565599     -0.63210517      0.08650282
H       1.88383602     -0.84975002      1.10886515
H      -0.27974029     -0.32409004      1.39253096
H      -1.77894601      1.72796670      0.61355396
H      -1.18250087      1.43297443     -1.00013589
H      -3.47801635      0.48544397     -0.69816271
