18
b3lypvtz=-181901.0239845
C       1.61889438     -1.14295067      0.57044341
C       0.97873142     -0.10468689      0.02069903
N       1.62753696      0.88620112     -0.72069926
C      -0.50847950      0.08677348      0.12123107
C      -0.93607795      1.17652274      1.09242118
C      -1.41190893     -1.10457897     -0.02405686
C      -1.32450671     -0.09226772     -1.13881368
H       2.69418985     -1.24912509      0.50240730
H       1.07413409     -1.91263589      1.09357636
H       1.14942416      1.77018242     -0.78011244
H       2.61293369      0.99360112     -0.53876374
H      -0.62253249      0.93255585      2.10927199
H      -0.50273142      2.14636367      0.83496788
H      -2.02089305      1.29291678      1.08901988
H      -2.31181085     -1.12436438      0.57642662
H      -0.96250155     -2.07227685     -0.19152455
H      -0.80284994     -0.38355421     -2.03955005
H      -2.16435616      0.57136348     -1.29862215
