16
b3lypvtz=-181113.46405263
C       1.66090344      1.00464690      0.23036660
C       0.42700513      0.16789749      0.07686896
C      -0.33379775     -0.67026402      1.16893968
C      -1.17654156     -0.89441629     -0.12760559
C       0.18990603     -1.06929293     -0.86497369
C      -0.96406218      0.59706743     -0.36527133
N      -1.51436470      1.66964105     -0.71673287
H       1.92877382      1.47252030     -0.71844630
H       2.50867108      0.40483881      0.56645979
H       1.49712548      1.80160451      0.95762946
H      -0.80282461     -0.11751387      1.98140783
H       0.20130677     -1.55045131      1.52675571
H      -2.07662194     -1.49127073     -0.24219897
H       0.20669345     -0.88655544     -1.93827018
H       0.74696789     -1.96633685     -0.59276919
H      -2.49914035      1.52788494     -0.94215991
