17
b3lypvtz=-215291.62635123
C      -3.07192464      0.41320246     -0.21362093
C      -1.96473641     -0.54107296      0.18222941
O      -0.71280329      0.06212252     -0.11515046
C       0.39781557     -0.75110368      0.21112628
C       1.69623747      0.00640503     -0.01051245
N       2.81348067     -0.54273468     -0.29138477
N       1.60124976      1.35329468      0.21328778
H      -2.99677835      1.34602858      0.34580956
H      -3.01700099      0.64429883     -1.27754712
H      -4.04565625     -0.03314850     -0.00754177
H      -2.01556519     -0.77551399      1.25387588
H      -2.05687166     -1.48817284     -0.36529020
H       0.40907964     -1.65920223     -0.40206889
H       0.34659360     -1.05567441      1.26614881
H       2.70924838     -1.54924187     -0.38649894
H       2.39614312      1.89903616     -0.07617437
H       0.69246555      1.76715390      0.09365416
