17
b3lypvtz=-191973.81457468
C      -2.78198100     -0.30711082     -0.24062988
C      -1.50404459     -0.66157248     -0.24514078
C      -0.49016195     -0.20412569      0.77023062
N       0.64100719      0.49739459      0.18064323
C       0.43773641      1.88727754     -0.18045134
C       1.77971661     -0.16689508     -0.20495958
N       2.09342620     -1.39989364     -0.11938962
H      -3.18558525      0.35011769      0.52158151
H      -3.47480463     -0.66511583     -0.99065273
H      -1.12670561     -1.31682937     -1.02414570
H      -0.96677527      0.45750976      1.49792464
H      -0.10324607     -1.06008990      1.32882628
H       1.36225230      2.29613801     -0.58397117
H       0.15726701      2.47812388      0.69610471
H      -0.34694396      2.00453961     -0.93424523
H       2.51805504      0.51073578     -0.63435940
H       1.34943459     -1.97435805      0.27220844
