10
b3lypvtz=-277258.88416129
N       2.28706848     -0.64892264      0.00033514
N       1.06344119     -0.80709298      0.00009087
C       0.34549642      0.48121528      0.00013558
N       0.84925621      1.63135996      0.00020008
C      -1.15351922      0.30732960      0.00005181
F      -1.53441246     -0.40222005      1.10015300
F      -1.53431247     -0.40204298     -1.10019736
H       2.71503454     -1.58454650      0.00027135
H       1.87288694      1.56154202      0.00025285
H      -1.66339463      1.26945329      0.00010568
