13
b3lypvtz=-239640.71204028
C      -1.45643240     -0.63278068     -0.35197356
C      -0.57062389      0.42210060      0.24396776
C      -1.10131075      1.46231663      0.89496896
F      -0.36406873      2.43597282      1.44798009
N       0.82632081      0.35654324      0.14136332
N       1.24209539     -0.65118556     -0.47521002
N       2.57811148     -0.65885607     -0.62406817
H      -2.50532352     -0.40098414     -0.17231823
H      -1.23652252     -1.61273103      0.07472376
H      -1.29415457     -0.71333016     -1.42787371
H      -2.16249411      1.61110059      1.03367718
H       2.95012953     -1.58095623     -0.77649606
H       3.09427329     -0.03721002     -0.00864133
