18
b3lypvtz=-205191.18075338
C       2.26675854     -0.53276461      0.12499601
O       1.13512214     -0.37164140     -0.70954647
C      -0.00107297      0.21407426     -0.09964233
C       0.23351398      1.64936181      0.34669539
C      -0.75493170     -0.66115651      0.94695518
N      -2.01595050     -0.36505417      0.22478021
C      -1.25437770      0.03749034     -0.98376453
H       2.02162654     -1.08481169      1.04002975
H       2.71987631      0.42341372      0.40459712
H       2.99506997     -1.10851227     -0.44334956
H       0.59659373      2.24899598     -0.48997623
H       0.95958041      1.71029562      1.15883026
H      -0.70234667      2.07890960      0.70427590
H      -0.74540374     -0.33784065      1.98996821
H      -0.42981700     -1.70490146      0.88340027
H      -2.63522354     -1.15508795      0.09913091
H      -1.09130877     -0.76256605     -1.71122208
H      -1.64065302      0.92320243     -1.49190800
