21
b3lypvtz=-172603.16411444
C      -2.55469678      0.62932459     -0.32139565
C      -1.69349723     -0.36453962     -0.13706344
C      -0.61580139     -0.39376723      0.90715092
C       0.82628646     -0.56942636      0.36890780
C       1.02171609     -1.92952967     -0.31092580
C       1.27418560      0.57174460     -0.55854594
C       1.31967882      1.95401597      0.09355904
H      -3.32014370      0.58403781     -1.08539822
H      -2.53062256      1.52367657      0.29112615
H      -1.77061849     -1.23914811     -0.77664435
H      -0.81332088     -1.22729031      1.59090351
H      -0.67495918      0.51532936      1.50888005
H       1.47833157     -0.54915231      1.24971639
H       2.07144667     -2.08702176     -0.56537672
H       0.71054749     -2.74948286      0.33995264
H       0.44924372     -2.00374384     -1.23778368
H       2.27099612      0.32769144     -0.93766836
H       0.61669397      0.60243320     -1.43234920
H       0.32887138      2.29712148      0.39335535
H       1.95405736      1.95065705      0.98341321
H       1.72476994      2.69607602     -0.59651268
