15
b3lypvtz=-191225.53650998
N      -2.45768391     -0.60457461     -0.11890562
C      -1.26738021     -0.16381663     -0.04158523
C      -0.76673696      1.22014701     -0.09290568
C       0.54569043      1.26237132      0.14432338
C       1.14081154     -0.09995513      0.41033477
N       2.37247418     -0.29550037     -0.35472710
C      -0.05268736     -1.06011894      0.14524983
H      -3.12106523      0.16255065     -0.23709280
H      -1.40752469      2.07065796     -0.28456016
H       1.16200424      2.15117675      0.16395260
H       1.43036937     -0.15008481      1.46541403
H       2.17067567     -0.33961214     -1.34775830
H       2.81554163     -1.17066683     -0.10187062
H       0.12071935     -1.62684748     -0.77218060
H      -0.22209806     -1.78286175      0.94271750
