14
b3lypvtz=-201288.14863294
N       3.47940862     -0.70184591      0.11069845
C       2.54846312     -0.03120757      0.03841471
C       1.37033938      0.83850174     -0.03035005
N       0.20080433      0.10039979     -0.49297885
C      -0.80226390      0.06748277      0.27469168
C      -2.06268149     -0.66024574     -0.09152437
N      -3.21804732      0.20954350      0.13697902
H       1.22947695      1.30704407      0.95335430
H       1.58674412      1.63263803     -0.75004887
H      -0.82250728      0.57570008      1.24840528
H      -2.15289803     -1.51749409      0.58357192
H      -1.95942670     -1.05237394     -1.10845923
H      -3.30510378      0.89143619     -0.60685367
H      -4.07547102     -0.32688593      0.15185268
