13
b3lypvtz=-239482.66113496
C       0.92721248      0.04095425     -0.00249526
H       0.52039253      1.02153332     -0.25531025
H       0.52022450     -0.67546306     -0.71810171
H       0.58108851     -0.23029037      0.99246081
C       2.43385793      0.04130180     -0.00361303
C       3.12531468      0.34784774     -1.13267344
O       4.46156477      0.39414133     -1.30236685
H       4.91120345      0.17037946     -0.47703382
O       2.48715043      0.65509955     -2.26576509
H       3.14163766      0.84124898     -2.95199693
C       3.14582787     -0.28767522      1.20842535
H       4.26280163     -0.26955878      1.14498889
O       2.64222355     -0.57831899      2.27588131
