13
b3lypvtz=-237095.15071417
C       2.41278818     -0.86924344      0.00007352
O       0.98022822     -0.73627494      0.00002839
C       0.52382623      0.52816019      0.00003684
O       1.21331661      1.51852345      0.00009713
N      -0.85787933      0.57382865      0.00003433
C      -1.74929878     -0.49636362     -0.00000965
N      -3.01368575     -0.43157533      0.00000242
H       2.83789047     -0.40467050      0.88760177
H       2.60188712     -1.93826192      0.00003464
H       2.83795740     -0.40459390     -0.88738216
H      -1.22854782      1.51227576      0.00006878
H      -1.25642335     -1.46221655     -0.00005794
H      -3.35626819      0.53070116      0.00004993
