12
b3lypvtz=-202907.83671073
C       3.23932613      0.52427904     -0.01363266
C       2.05461563      0.34161428     -0.00682956
C       0.64548432      0.12221145     -0.00972110
N      -0.10941902      0.17065861      1.00992798
C      -1.46942750     -0.11721448      0.53393199
C      -1.31930741     -0.34041776     -0.98921480
O       0.10015405     -0.15873720     -1.22961706
H       4.28838651      0.68725327     -0.01093425
H      -2.12468804      0.72118678      0.77480209
H      -1.85873426     -0.99442734      1.05278421
H      -1.58864042     -1.34478433     -1.31260294
H      -1.85794999      0.38837769     -1.59299390
