16
b3lypvtz=-204440.71821524
C       2.19681874     -0.69491697      0.19682096
C       0.96157162     -0.14139317     -0.46155773
N       0.62052834      1.28087841     -0.33446375
C      -0.21562004      0.27258616      0.35239966
C      -1.60906601      0.18028348     -0.16919902
C      -2.59128953     -0.46025804      0.46210768
O      -1.79210943      0.78703453     -1.37139237
H       2.13852992     -1.78227943      0.27379920
H       3.09105365     -0.44983324     -0.38038679
H       2.32200967     -0.29275594      1.20469678
H       0.75720911     -0.52898359     -1.45407346
H       1.23451635      1.76277426      0.31276532
H      -0.11354921      0.17170778      1.42597352
H      -3.58362420     -0.51568562      0.04010348
H      -2.40177388     -0.95030989      1.40505115
H      -1.01530509      1.36105128     -1.50254461
