13
b3lypvtz=-234636.28925963
N       2.46571077     -0.67385435      0.51725646
N       2.24899275      0.39095828     -0.10650980
N       0.96342077      0.58579522     -0.44564856
C      -0.03456755     -0.41175743     -0.35363606
C      -1.29094525     -0.08734430     -0.00847418
N      -1.73220883      1.18865095      0.29159279
O      -2.32095369     -0.97791438      0.01916683
H       3.46833468     -0.66708180      0.71248243
H       0.88032383      1.31333783     -1.13808301
H       0.26508814     -1.43411535     -0.53427484
H      -2.58993731      1.19612542      0.82292212
H      -1.01718211      1.77711310      0.69285926
H      -1.99782320     -1.84082519     -0.26057343
