15
b3lypvtz=-216884.08627839
C      -3.36716617      0.55411490     -0.15580650
C      -2.28796663      0.12277914      0.13642143
C      -0.98803944     -0.40361927      0.52626223
O      -0.11374015     -0.41761929     -0.60255358
C       1.16771931     -0.91468278     -0.30153828
O       1.92000786     -0.07537852      0.52830156
C       2.33505997      1.13222490     -0.09991472
H      -4.32087610      0.93628300     -0.42186392
H      -1.10388813     -1.42293327      0.91809371
H      -0.56519676      0.20936126      1.32820267
H       1.65361850     -1.04959385     -1.27271515
H       1.10043654     -1.86948416      0.22978343
H       1.48114160      1.74186737     -0.40347879
H       2.95107836      0.92076362     -0.98119252
H       2.93014624      1.67866195      0.62842642
