18
b3lypvtz=-181917.00519498
C      -2.77648121      0.29581729      0.07901177
C      -1.59890900     -0.63278041      0.07747903
C      -0.31806257     -0.28386938     -0.09461970
C       0.25975054      1.10164902     -0.28606550
C       1.67979318      0.97035351      0.29204196
C       2.05613116     -0.49314630      0.00051150
N       0.76515797     -1.16276633     -0.14915200
H      -3.36505477      0.20050918      0.99716709
H      -2.47879967      1.34057690     -0.01077384
H      -3.46083752      0.08525224     -0.75000241
H      -1.82240526     -1.68847721      0.20518619
H      -0.32663910      1.87503513      0.20388032
H       0.30017963      1.34307997     -1.35272713
H       2.38647724      1.67921242     -0.13737020
H       1.65178468      1.13698916      1.37031714
H       2.64865709     -0.93201097      0.80684478
H       2.64666322     -0.57515100     -0.91868890
H       0.65186139     -2.08700621      0.22969190
