17
b3lypvtz=-215282.28084009
C      -2.44339420     -0.50870076      0.40810062
N      -1.32580868     -0.43068296     -0.53711969
C      -0.21213919      0.34301194     -0.15926344
N      -0.51921275      1.70332581      0.00843800
C       1.03090741     -0.14164213      0.00313673
C       1.45610198     -1.57316029      0.02659312
O       2.07604848      0.79234688      0.08195812
H      -2.77235342      0.49597262      0.66212558
H      -2.18604718     -1.02594049      1.34181423
H      -3.27385651     -1.03246016     -0.06510218
H      -1.04853805     -1.34304436     -0.86272112
H       0.31559187      2.25175051      0.15586363
H      -1.05511303      2.06633305     -0.76966449
H       2.06699864     -1.78296393      0.91379550
H       0.60828574     -2.25659928      0.06265936
H       2.06790736     -1.83104611     -0.84405385
H       2.62252254      0.58265766      0.84709589
