12
b3lypvtz=-226248.75600909
O       2.26745841     -0.01468736      0.13711708
C       1.07462813     -0.03280209     -0.00250142
C       0.27531683      1.22592224     -0.20214034
N      -0.97439583      1.33474078     -0.02596182
C      -1.69082099      0.10201772      0.29586394
C      -1.01980759     -1.12135011     -0.28849973
O       0.37447206     -1.18180619      0.08864867
H       0.86938570      2.10564117     -0.43533257
H      -1.76587258      0.03148422      1.38563384
H      -2.70970616      0.18644950     -0.08521631
H      -1.08138195     -1.10782168     -1.38001786
H      -1.46176404     -2.04712119      0.07312852
