15
b3lypvtz=-191228.30442917
C       2.03535517     -0.16557271      0.19121762
C       0.73670324      0.09535781     -0.56410255
C      -0.44244080     -0.82555257     -0.16690658
C      -1.54837177      0.15280798      0.19036445
N      -2.75823538     -0.01726537      0.53164814
C      -0.92220636      1.48830895      0.06324906
N       0.28580254      1.48658326     -0.33260942
H       2.79451059      0.56162765     -0.09523842
H       1.87713803     -0.08506034      1.26853006
H       2.41239482     -1.16624422     -0.02586218
H       0.94037798      0.01839299     -1.63572839
H      -0.19720836     -1.44634568      0.69735813
H      -0.75196102     -1.49286113     -0.97173186
H      -3.00305029     -1.00805588      0.56101550
H      -1.45880838      2.40387927      0.28879644
