12
b3lypvtz=-226239.36751355
O      -2.83141809      1.20431262      0.17981090
C      -2.44013528      0.67781495     -0.84264541
C      -1.11716401      0.07700299     -1.03381351
C      -0.20283214      0.06356798     -0.05015059
N       1.04930394     -0.49693368     -0.20820938
C       1.83175035     -0.45289973      0.78785830
O       3.06029403     -0.97985247      0.69701978
H      -3.10514189      0.62572118     -1.72728995
H      -0.88370569     -0.36296780     -1.99483319
H      -0.46698595      0.51479134      0.90794254
H       1.57669772     -0.00240938      1.75345089
H       3.52933701     -0.86804802      1.53095961
