14
b3lypvtz=-201321.54331917
C       2.48758705     -0.56698636      0.00747561
C       1.08663357     -0.05738606      0.00029892
C       0.64618907      1.23216325      0.00026484
N      -0.74421997      1.15307368      0.00404727
H      -1.38620666      1.91656951     -0.11238857
C      -1.06160563     -0.17006637      0.00128586
N      -2.37841551     -0.61584366     -0.07871141
N       0.00641479     -0.92719016      0.00888066
H       2.67610390     -1.18219589      0.88997645
H       3.20445768      0.25417198      0.00335573
H       2.67818539     -1.19281607     -0.86709088
H       1.16377992      2.17435092      0.01448234
H      -2.98902373     -0.22126754      0.62398730
H      -2.40287785     -1.62475024     -0.03331613
