11
b3lypvtz=-238670.79555861
C       0.18517965     -1.07925551     -0.13831381
C      -0.79912049     -0.01237637      0.36149804
C       0.40620847      0.98086112      0.19983359
O       0.43428818      2.17183952      0.10132343
C       1.34445635     -0.14277822     -0.17715553
O       1.19027630     -1.14017611      0.85684832
O      -1.82475435      0.28283621     -0.55441780
H      -0.00387912     -1.93593592     -0.76782810
H      -1.16669227     -0.19919054      1.37334022
H       2.25599244     -0.15115647     -0.75723456
H      -2.02195515      1.22533227     -0.49789379
