13
b3lypvtz=-213757.65939965757
C      -0.02945329     -1.06893584      0.31481441
C      -1.56145245     -0.68925486      0.19351239
O      -2.45710851     -1.50131531      0.42727653
C      -1.56783672      0.65045957     -0.20131438
N      -0.21988889      1.09413962     -0.32382686
C       0.68298986      0.18718084     -0.05083323
N       2.02556514      0.37328519     -0.09736909
H       0.21171601     -1.88877065     -0.36369374
H       0.20132940     -1.38963006      1.33195617
H      -2.37216550      1.33050648     -0.40660701
H       0.00852052      2.03692271     -0.60047759
H       2.43992101      1.25139117     -0.35387839
H       2.63786343     -0.38597887      0.13044078
