13
b3lypvtz=-192811.33615198
C       2.92876205      0.78324212      1.11331743
C       1.97980320      0.07710829      0.89323627
C       0.87277084     -0.77224740      0.63818604
C      -0.32664957     -0.32632594      0.27351875
C      -1.65883921     -0.94347430     -0.05918665
O      -2.21659031      0.37425958     -0.29885442
C      -0.95029732      1.01597791      0.01260205
H       3.76454873      1.40796566      1.30708307
H       1.03364473     -1.83968215      0.75228532
H      -1.68702908     -1.57116451     -0.95525551
H      -2.16623672     -1.46232985      0.76002677
H      -1.02581859      1.68398356      0.87566752
H      -0.54796875      1.57258705     -0.83892664
