11
b3lypvtz=-215396.95500242
C       2.26959791      0.44527456     -0.90092899
C       1.15028215      0.39666640     -0.46826124
C      -0.17746490      0.35145924      0.04445160
C      -0.91181445      1.45085107      0.25334862
C      -0.80217929     -0.97559072      0.37275081
O      -1.91627458     -1.11562368      0.80973901
O       0.02449204     -2.01042446      0.12463164
H       3.25938366      0.48030655     -1.28276838
H      -0.52191960      2.43457923      0.03787847
H      -1.91446512      1.35705711      0.64496739
H      -0.45963782     -2.81455529      0.36429107
