9
b3lypvtz=-294754.63768143
N      -0.59168108     -1.71305734      0.00002800
C      -0.82350847     -0.48556771      0.00002714
F      -2.07017703      0.04546280     -0.00003614
C       0.20087600      0.56656878      0.00001623
F      -0.27279761      1.82748900      0.00001590
C       1.52502175      0.41962249     -0.00000138
F       2.12608284     -0.76186544     -0.00000408
H      -1.44746569     -2.26369503      0.00000115
H       2.19597329      1.26768446     -0.00001982
