19
b3lypvtz=-192748.06420857
C      -3.57196319     -0.40160615      0.04261659
C      -2.19616614     -0.12361548     -0.56026808
C      -1.17265012      0.32961306      0.48278080
N       0.09783963      0.66532034     -0.12772437
C       1.13723824      0.07003639      0.28763358
N       2.39878885      0.36450456     -0.15687887
C       3.49128151     -0.58082727     -0.04262963
H      -4.28218671     -0.72142740     -0.72132889
H      -3.52453148     -1.18864139      0.79906829
H      -3.98174945      0.49057965      0.52186318
H      -1.81739860     -1.02001856     -1.05925004
H      -2.26871102      0.64860115     -1.32961188
H      -1.56258376      1.22147204      0.98704181
H      -1.06761827     -0.44918086      1.25628101
H       1.11871513     -0.70315462      1.06786066
H       2.41724527      0.99453208     -0.94468419
H       4.44343597     -0.05168547     -0.07704303
H       3.43131266     -1.08839815      0.92040683
H       3.49262148     -1.34535493     -0.82877076
