20
b3lypvtz=-205963.86782592
C      -3.33772082     -0.70495760      0.09478081
N      -2.33891159      0.31061116     -0.20696667
C      -0.99258114     -0.05642749      0.22156688
C       0.00965193      1.03685608     -0.13528759
C       1.42690105      0.74060412      0.32178977
O       1.91959695     -0.39315662     -0.37299889
C       3.23372655     -0.74216425      0.00165351
H      -3.44797659     -0.79765870      1.17768974
H      -3.09653651     -1.70508594     -0.29965378
H      -4.30419576     -0.40208553     -0.30953737
H      -2.33332287      0.49302989     -1.20387772
H      -1.01406069     -0.18541857      1.30917834
H      -0.65834456     -1.01536501     -0.20110245
H      -0.31644483      1.97763311      0.31507497
H       0.02054617      1.18876823     -1.21912925
H       1.44989272      0.55345525      1.40595312
H       2.07536174      1.60632527      0.12749513
H       3.52067722     -1.61319936     -0.58521246
H       3.94120024      0.07235527     -0.20160912
H       3.29656777     -0.99523131      1.06790403
