11
b3lypvtz=-212998.93296336
C      -1.13654680     -0.20943742      0.59925732
C      -0.25709883      0.35249786     -0.54517666
C       0.74935370     -0.68868176     -0.04867554
N       1.90441352     -0.99860940     -0.38799085
O      -0.09904400     -1.18890179      0.91613708
C       0.12964937      1.74797118     -0.47447550
N       0.41277767      2.86038763     -0.40357095
H      -2.05761295     -0.69706361      0.28989791
H      -1.30551308      0.46715922      1.43298471
H      -0.62797364      0.11864002     -1.54270077
H       2.28759507     -1.76396194      0.16431324
