12
b3lypvtz=-202947.41435448
N       2.38479357     -0.55173525     -0.00012921
C       1.17760643     -0.15739083     -0.00009343
C       0.65605937      1.22494418     -0.00002670
C      -0.68366769      1.24533265     -0.00005233
C      -1.22043242     -0.14216229     -0.00011621
O      -2.38656766     -0.45544338     -0.00002646
C      -0.01821302     -1.08403030     -0.00011789
H       3.02875287      0.24135053     -0.00009780
H       1.30935714      2.08817736      0.00006391
H      -1.32645184      2.11360576     -0.00001847
H      -0.03272657     -1.73106167      0.87795528
H      -0.03267718     -1.73110175     -0.87815969
