20
b3lypvtz=-182670.4704789
C      -2.92997199     -0.24124621     -0.51207678
C      -2.00206667     -0.29154997      0.43667189
C      -0.57565775     -0.71126275      0.23992760
C       0.42574997      0.41638047      0.55031489
N       0.27958365      1.47406333     -0.45512930
C       1.88277768     -0.07271172      0.58439379
C       2.40534440     -0.68725960     -0.71507684
H      -2.71032258     -0.52362130     -1.53519101
H      -3.94302975      0.07512789     -0.29952593
H      -2.27284067      0.00125724      1.44884870
H      -0.42911980     -1.05461120     -0.78552615
H      -0.35447868     -1.55207417      0.90610024
H       0.19411461      0.77709127      1.56551684
H       0.81334513      2.29412408     -0.19205824
H      -0.68985309      1.75889073     -0.53237369
H       1.98258058     -0.79049812      1.40401338
H       2.51396021      0.78024909      0.85562618
H       1.89782508     -1.62302995     -0.95444759
H       2.25991231     -0.00468616     -1.55148214
H       3.47094736     -0.90778794     -0.63285387
