16
b3lypvtz=-204456.64900533
C       0.55755167      1.65851164      0.06975528
C       0.20922222      0.37275276      0.03528531
C       1.22039370     -0.75276242      0.05296938
N       2.59864865     -0.27359182     -0.01839165
C      -1.26004566      0.03434624     -0.01444385
C      -1.66621662     -1.42621313      0.01174567
O      -2.10720778      0.90171285     -0.07014057
H       1.59403275      1.95590804      0.13254596
H      -0.20796961      2.42154513      0.05230936
H       0.96819975     -1.46360162     -0.74695333
H       1.11491554     -1.31154657      0.98827551
H       2.79495498      0.10636777     -0.93752139
H       3.24369395     -1.03958839      0.12802844
H      -2.74962555     -1.48941941      0.06568965
H      -1.32069373     -1.93682235     -0.89017108
H      -1.22386525     -1.94792273      0.86277331
