13
b3lypvtz=-237076.29003842
N      -1.54644633     -1.55033177      0.30726786
C      -1.31160714     -0.20228847      0.00535258
C      -0.12300825      0.34558416     -0.25322917
N       0.16108176      1.65719815     -0.64725925
O       0.98325498     -0.53631039     -0.29616921
C       2.08471895     -0.20903566      0.40168608
O       2.22503332      0.75547239      1.10020988
H      -2.40046827     -1.90951564     -0.09393497
H      -0.76728657     -2.15071142      0.07785250
H      -2.18081805      0.44007336      0.03578371
H       0.69445008      2.17029679      0.04531680
H      -0.66935506      2.16497031     -0.91314161
H       2.85055058     -0.97540180      0.23036480
