15
b3lypvtz=-240235.0366671
C      -2.93933142     -0.35495184      0.00007354
O      -1.53616714     -0.52427957      0.00033318
C      -0.84837912      0.69699013     -0.00022087
C       0.65988945      0.53182287      0.00000485
O       1.39984727      1.48461193      0.00014216
O       1.06209294     -0.74183184     -0.00011172
C       2.48678487     -0.94129390      0.00000518
H      -3.27986996      0.18890816      0.89001062
H      -3.27964895      0.18800243     -0.89050151
H      -3.38242611     -1.34853920      0.00052298
H      -1.09814053      1.30417649      0.88080790
H      -1.09795994      1.30324869     -0.88194940
H       2.93406257     -0.49462833      0.88645618
H       2.62861802     -2.01760294     -0.00021927
H       2.93427204     -0.49422308     -0.88613481
