13
b3lypvtz=-190412.47729766
C      -1.37874438     -0.19420396     -0.23949474
C      -0.30411690      0.90280095     -0.02672713
C       0.73340151     -0.06986889     -0.66239944
C      -0.12150341     -0.87281910      0.36272620
N       0.06508532      0.29519795      1.31544104
C       2.14436837      0.13453930     -0.39164217
N       3.27664677      0.28194479     -0.24986735
H      -2.23936913     -0.13690827      0.42524923
H      -1.67039293     -0.44795003     -1.26020351
H      -0.37032431      1.97697626     -0.18031967
H       0.57289528     -0.31624304     -1.71008320
H       0.02892386     -1.90439749      0.67112298
H      -0.73687005      0.35093152      1.94619777
