14
b3lypvtz=-227018.54447733
C      -3.09145036     -0.36361744     -0.00028649
C      -1.91722975      0.24553647     -0.00008555
O      -0.74906909     -0.48426966     -0.00006044
C       0.43793021      0.21851490      0.00002341
O       0.51800302      1.42359996      0.00005545
N       1.46425779     -0.66109085      0.00017800
C       2.85197557     -0.24456806     -0.00037158
H      -3.17712155     -1.44101317     -0.00044052
H      -3.99515262      0.22606172     -0.00028707
H      -1.77115409      1.31564959      0.00007621
H       1.23084328     -1.63875399     -0.00036004
H       2.87632984      0.84160262      0.00076812
H       3.37176452     -0.60775083     -0.88892654
H       3.37288721     -0.60967126      0.88671903
