15
b3lypvtz=-214493.10724250824
C      -2.53491440      0.42380647     -0.33706196
C      -1.32259292     -0.45436034     -0.10681320
O      -0.15607153      0.34804733     -0.21080054
C       1.03557016     -0.37872616     -0.01109518
C       2.16544888      0.60815302     -0.14871553
N       3.38969216      0.23092852     -0.01659576
N       4.46088837     -0.13244371      0.10541938
H      -2.49687457      0.87850321     -1.32713203
H      -2.57839248      1.22084040      0.40542571
H      -3.44861195     -0.16758746     -0.26311478
H      -1.36443886     -0.92144249      0.88659227
H      -1.28353724     -1.26409317     -0.84808280
H       1.11901807     -1.18931558     -0.75224113
H       1.03404145     -0.85050111      0.98423341
H       1.98077484      1.64819107     -0.36016160
