13
b3lypvtz=-216118.46781768
C       2.68191718      0.10402682      0.42074748
C       1.48134704      0.07441498      0.38888845
C       0.05034040      0.00633475      0.33674958
C      -0.77244156      1.15491317     -0.20746944
C      -0.68518315     -0.12138175     -0.99306282
O      -1.76327046     -0.99626646     -1.06347608
O      -0.57729946     -0.66997242      1.41113919
H       3.74222602      0.14002595      0.45212224
H      -0.24314025      2.02976650     -0.55686225
H      -1.69630459      1.34456660      0.32312012
H      -0.09831813     -0.13291657     -1.90075534
H      -2.00589201     -1.22234349     -0.15497664
H      -0.11398103     -1.50565052      1.54383549
