15
b3lypvtz=-214530.92365542
C      -3.15413403     -0.32811610      0.12505979
C      -1.95206398      0.19155743     -0.13646221
N      -0.77850884     -0.54055411     -0.11461434
C       0.36722054      0.03676272     -0.10123420
O       0.62007799      1.36609675      0.04426822
N       1.51208125     -0.67791619     -0.25978883
C       2.83103532     -0.20774555      0.12575639
H      -3.26212201     -1.37064795      0.39102425
H      -4.04269227      0.28318235      0.07069941
H      -1.91449325      1.24700471     -0.42840959
H      -0.21037998      1.81679147      0.23313361
H       1.34748403     -1.66997407     -0.27928906
H       3.03413140      0.76108558     -0.32405895
H       2.95060130     -0.11603642      1.21018815
H       3.56906253     -0.91623762     -0.24524664
