19
b3lypvtz=-221053.40186209
C       1.32233537     -0.10812594     -1.11369074
C       0.74877295      0.17792727      0.27853617
C       1.12294211     -0.92709519      1.27232863
C      -0.76745680      0.48309936      0.27040839
C      -1.64302322     -0.57032219     -0.40065520
F      -1.67109409     -1.75375242      0.34099877
N      -1.01018678      1.73240623     -0.46615376
H       2.41306642     -0.11194555     -1.07921819
H       1.00617556      0.64366364     -1.83635187
H       1.00923413     -1.08810201     -1.47986615
H       1.21688003      1.10228307      0.64006652
H       0.74648491     -0.70863384      2.27354565
H       2.20834806     -1.02328887      1.33790964
H       0.71607963     -1.89113550      0.96922146
H      -1.08938108      0.54215916      1.32018883
H      -2.67285503     -0.21065879     -0.46959677
H      -1.28883251     -0.80678799     -1.40355980
H      -1.96285477      2.05118267     -0.33348452
H      -0.40463487      2.46712692     -0.12062708
