12
b3lypvtz=-202942.45275629
C       1.68159777      1.33021213     -0.00000426
C       0.48252313      0.43898068     -0.00000860
C       0.72852322     -1.02800474     -0.00000604
O       1.83998100     -1.50103123      0.00002345
C      -0.77752102      0.91037923     -0.00000130
C      -1.95197105      0.10569884     -0.00000758
N      -2.93649548     -0.49580836     -0.00001307
H       2.30482134      1.12435316     -0.87197468
H       2.30481739      1.12434909      0.87196799
H       1.40212425      2.38188107     -0.00000284
H      -0.16959160     -1.66958386      0.00002582
H      -0.95927895      1.97886499      0.00001110
