14
b3lypvtz=-203654.13168234
C      -2.19620027      0.29937851     -0.46916286
N      -1.06488298      0.84455481     -0.37075721
C      -0.22331522      0.52199482      0.76524433
C       1.20453247      0.22301547      0.26601837
O       1.70109920      1.31533309     -0.49023675
C       1.26025392     -1.04407068     -0.47796989
C       1.29853877     -2.07999804     -1.08159892
H      -2.58978034     -0.40951400      0.26849544
H      -2.82908757      0.53238416     -1.32230931
H      -0.15761344      1.41265183      1.39474952
H      -0.60633174     -0.31309957      1.36484205
H       1.85786205      0.13759763      1.13743299
H       1.00008290      1.55232128     -1.11298355
H       1.34474225     -2.99254930     -1.62166420
