16
b3lypvtz=-227755.99944688
O       3.14322141      0.55453601     -0.35601649
C       2.65468494     -0.62819180      0.10705580
N       1.45899730     -0.97394931      0.29253667
C       0.37914767     -0.04081888     -0.00706118
C      -0.97619111     -0.72672144      0.14379080
C      -2.16472395      0.16860001     -0.18338434
O      -2.33463120      1.25035968      0.73428422
H       2.41537988      1.15933084     -0.54480876
H       3.47158317     -1.30957742      0.32073425
H       0.46679571      0.35361795     -1.03220086
H       0.42806328      0.81903448      0.67510704
H      -0.99832271     -1.59974295     -0.51417926
H      -1.07183844     -1.09652344      1.16638294
H      -3.08472781     -0.41293492     -0.12040704
H      -2.09101996      0.54463032     -1.21197490
H      -1.69631817      1.93845089      0.53004113
