18
b3lypvtz=-181830.83689924
C       1.21172412     -0.85182613     -0.12143047
C       0.04509827     -1.85102745     -0.10097985
C      -0.79973775     -1.65637970     -1.42559773
C       0.23055323     -2.69762053     -2.08476164
C       0.31504112     -3.21805275     -0.61462657
N       1.09379954     -3.53700839      0.63410544
C       0.09731012     -2.57195466      1.30124471
H       0.89741305      0.04997700      0.41179310
H       1.49586399     -0.54520594     -1.12777080
H       2.09354418     -1.25330725      0.37491005
H      -1.80583285     -2.07002108     -1.39145799
H      -0.82578182     -0.65248966     -1.84790744
H       1.11697324     -2.19298163     -2.45918341
H      -0.15565382     -3.38037526     -2.84036160
H      -0.62798562     -3.77967178     -0.52713427
H       0.98962330     -4.50009346      0.94170244
H       0.51497356     -2.01867003      2.14230960
H      -0.83532587     -3.06549129      1.58724643
