19
b3lypvtz=-195133.68287655
C       2.59068299     -1.15232553     -0.00610295
C       1.45759941     -0.57072165     -0.37830073
C       0.72799306      0.48246790      0.41166438
C       0.70314448      1.82537750     -0.33572995
C      -0.68806032      0.02531027      0.77573647
O      -1.44806958     -0.16060505     -0.40443048
C      -2.76443976     -0.59793313     -0.15189570
H       3.07433356     -1.90012349     -0.62117758
H       3.07972222     -0.90062027      0.92856147
H       0.99728060     -0.84892195     -1.32114045
H       1.25490507      0.62170463      1.36112495
H       0.17958553      1.72968309     -1.28663182
H       1.71655811      2.17395678     -0.53513560
H       0.18979192      2.58725241      0.25495028
H      -1.16787208      0.78191924      1.41411485
H      -0.64404379     -0.91283203      1.34538158
H      -3.26278414     -0.70690431     -1.11370921
H      -3.32034381      0.12697647      0.45666858
H      -2.77578048     -1.56500989      0.36679092
