18
b3lypvtz=-205206.8406539
C       2.91017103      0.78495349      0.08477423
C       1.86318519     -0.29908236     -0.13002186
N       0.51413725      0.25156164     -0.06981089
C      -0.53554487     -0.74132865     -0.31686994
C      -1.88366850     -0.11241861     -0.49191405
C      -2.86404890     -0.22347486      0.39866355
O      -4.11407994      0.31080476      0.31504337
H       2.86272409      1.53847034     -0.70548467
H       2.75123889      1.28821610      1.03881466
H       3.91580526      0.36213608      0.07699285
H       2.06143532     -0.82411941     -1.08055041
H       1.94981237     -1.05365943      0.65764594
H       0.42532511      1.00937347     -0.73827900
H      -0.30520987     -1.35801250     -1.20369620
H      -0.55925113     -1.42827302      0.53412466
H      -2.05033393      0.46583966     -1.39872634
H      -2.74869313     -0.78426279      1.31781191
H      -4.19300423      0.81327607     -0.50413855
