12
b3lypvtz=-200539.10548986
C      -1.74010768     -1.17459655     -0.00254489
C      -0.53452671     -0.60731497      0.00057536
N       0.70635198     -1.24396100      0.00519282
C       1.67595603     -0.27116238     -0.00146386
N       1.25110719      0.94240247     -0.00262456
C      -0.16173303      0.85874276     -0.00011573
N      -0.90768790      1.88559324      0.00182263
H      -2.62836817     -0.56017293     -0.00689171
H      -1.87700715     -2.24674838     -0.00110258
H       0.86282010     -2.23536527     -0.01128874
H       2.72157510     -0.54859244     -0.00379456
H      -1.89138775      1.61890144      0.00374482
