17
b3lypvtz=-191975.27518456
C      -1.63186775     -1.46749363      0.26988423
C      -1.10891520     -0.25275040     -0.47619189
C      -1.33881947      1.15865864      0.14773325
N       0.11600941      1.38029917      0.04608877
C       0.37832716      0.05938786     -0.32413302
N       1.41585713     -0.64067508     -0.46406880
C       2.69413840     -0.00653207     -0.17353680
H      -1.35520343     -1.43181924      1.32520520
H      -2.71971894     -1.53249858      0.20378864
H      -1.20848013     -2.37916109     -0.15216166
H      -1.40546861     -0.28772463     -1.52543968
H      -1.93565023      1.86242826     -0.43305759
H      -1.71451711      1.11789653      1.17277722
H       0.67456450      1.94868971      0.66448263
H       2.82540604      0.93755719     -0.71708577
H       2.81004623      0.20903269      0.89632101
H       3.50429201     -0.67529533     -0.46060575
