15
b3lypvtz=-191171.23584989
C      -2.74330320     -1.10652115     -0.05409161
C      -1.75495336     -0.45314975      0.13072141
C      -0.55022327      0.34534388      0.35678578
C      -0.69367798      1.77040816     -0.18912133
N       0.58939254     -0.33985659     -0.27766898
N       1.80211373      0.12611646      0.11888550
C       2.82319981     -0.62181595     -0.00597141
H      -3.62193323     -1.67962191     -0.21605623
H      -0.38695541      0.40508611      1.44101628
H       0.23564597      2.31244062     -0.02394369
H      -0.90404152      1.74342224     -1.25764071
H      -1.50478318      2.29021020      0.32032280
H       0.49600758     -1.35252557     -0.28688350
H       3.78663834     -0.21739136      0.27291162
H       2.77429120     -1.64384036     -0.39037093
