9
b3lypvtz=-233132.65750909183
C      -0.40726075     -1.73581942     -0.04930059
O       0.18328308     -2.50563198     -0.76013034
C      -0.11522668     -0.28810903      0.03417772
N      -0.81203796      0.54272422      0.85330135
N      -0.31362950      1.73072203      0.69083207
N       0.82465711      0.35892257     -0.64983634
N       0.65608078      1.58409258     -0.20873794
H      -1.23298190     -2.04881330      0.61413356
H       1.21711582      2.36191232     -0.52443950
