16
b3lypvtz=-204416.81221899
C       3.11438414     -0.41443970      0.23164756
C       1.97848655     -0.15767189     -0.05812977
C       0.59529139      0.17286047     -0.41922107
O       0.24033582      1.48371019      0.03256797
C      -0.39901198     -0.82522610      0.19117771
N      -1.73357971     -0.69994067     -0.37627930
C      -2.61701926      0.25224122      0.29235433
H       4.11835323     -0.64190995      0.49027957
H       0.48861417      0.11211219     -1.50847249
H       0.88703745      2.10882661     -0.30981259
H      -0.37849284     -0.69235278      1.28298135
H      -0.02221059     -1.82540529     -0.02491692
H      -2.17185132     -1.60977384     -0.39783645
H      -3.60612194      0.20120217     -0.16383613
H      -2.23414755      1.26211254      0.16514308
H      -2.72410456      0.06624983      1.37222615
