19
b3lypvtz=-195134.9412715
C       2.20088345     -1.31072340     -0.00919614
C       1.92984124      0.19335752     -0.07792765
C       0.56123915      0.56740854      0.44443253
C      -0.11509340      1.84331133      0.01998317
C      -0.64261397      0.51202486     -0.45564332
C      -1.95585583     -0.00135070      0.05421512
O      -1.94019552     -1.42895443     -0.00608756
H       2.17156393     -1.66672734      1.02283767
H       3.18301049     -1.55588289     -0.41716816
H       1.44909318     -1.86950150     -0.56873627
H       2.69551557      0.73150327      0.49003450
H       2.02279019      0.53742361     -1.11262781
H       0.37806527      0.26392370      1.47025561
H       0.38905837      2.47205109     -0.70194194
H      -0.69300112      2.38889794      0.75462249
H      -0.44727507      0.26421985     -1.49301008
H      -2.10975607      0.34308191      1.08520674
H      -2.77680700      0.39855059     -0.55437571
H      -2.81137388     -1.75653596      0.23479680
