14
b3lypvtz=-227024.25209015
C       1.99383564     -1.06715071      0.48824416
C       1.19738592     -0.18551757     -0.09523530
C       1.56573602      1.18565809     -0.55639803
O      -0.10372951     -0.60086698     -0.42494719
C      -1.16167021      0.04446338      0.15563459
N      -2.32266968     -0.41664475     -0.38678954
O      -1.07408619      0.89871790      1.00167310
H       3.02618190     -0.82231113      0.68791064
H       1.63301146     -2.04528270      0.77048371
H       2.61532520      1.38485689     -0.34882438
H       0.95667900      1.93672736     -0.05411220
H       1.39759268      1.28025614     -1.63201926
H      -2.31096522     -1.25128053     -0.94499748
H      -3.17235903     -0.16240739      0.08310217
