13
b3lypvtz=-213713.50879944
C       2.74714633     -0.55801566      1.33082022
C       1.92204068     -0.10681761      0.58647663
C       0.90533986      0.42193565     -0.33948527
C      -0.39437686     -0.33775721     -0.14877673
N      -1.43116194      0.31040774      0.17792467
N      -2.59914041     -0.35017448      0.45155711
O       0.72613778      1.81336542     -0.19324237
H       3.48191050     -0.94193656      1.99366568
H       1.26292202      0.23304663     -1.36065222
H      -0.37129653     -1.42271412     -0.27028703
H      -3.38892423      0.25443811      0.28574076
H      -2.70261945     -1.24567717     -0.01711224
H      -0.15797773      1.92989927      0.18728496
