14
b3lypvtz=-224599.70045028
N       2.64669778     -0.46645388      0.01167312
C       1.39567951     -0.72010597     -0.10476625
C       0.29360609      0.20046225     -0.00343955
O       0.58463652      1.56256803      0.13311556
C      -1.02648429     -0.14134601     -0.00892745
N      -2.02297405      0.80640254     -0.13243229
N      -1.50943708     -1.43430631      0.14618707
H       2.78318743      0.51238873      0.27383418
H       1.13453825     -1.75121083     -0.35348022
H       1.14897882      1.82839559     -0.60286164
H      -1.67610723      1.75189210     -0.07888023
H      -2.82830872      0.64515248      0.45438330
H      -0.80655046     -2.15102856      0.21951647
H      -2.23979459     -1.67815216     -0.50855008
