15
b3lypvtz=-191179.26228592
C       2.19509391     -0.09661095     -0.39017647
N       0.85635213      0.24308247      0.09060425
C      -0.06177055      0.65788224     -0.96197745
C      -0.17617521     -0.72750470     -0.37942851
C      -1.47268063     -0.33042446      0.27181610
N      -2.41954367     -0.90317461      0.87051546
C      -1.35759085      1.10330963     -0.26947931
H       2.20896695     -0.53005212     -1.40040997
H       2.80185872      0.80939161     -0.39559662
H       2.65040407     -0.80909667      0.29781402
H       0.29783203      0.93870058     -1.94113712
H       0.12632711     -1.68671670     -0.77627918
H      -2.22470429     -1.89686785      1.00222586
H      -2.17516863      1.32718848     -0.95479799
H      -1.24920108      1.90089305      0.46407268
