18
b3lypvtz=-202822.4933515
C      -2.67373014     -0.22068096     -0.13377047
N      -1.32542083     -0.57066421     -0.53993511
C      -0.36077501      0.09918857     -0.04149340
N      -0.44351104      1.12584506      0.86761205
C       1.06618541     -0.30881223     -0.39680720
C       1.61978067     -1.28006085      0.64813219
N       1.93069521      0.88242170     -0.46303540
H      -2.93190551      0.82138615     -0.37512776
H      -2.83389239     -0.35476064      0.94449934
H      -3.38590942     -0.85824463     -0.65576130
H       0.38265799      1.70102567      0.93722721
H      -1.32892995      1.57789685      1.01330678
H       0.98851900     -0.83497664     -1.35165531
H       1.68768356     -0.80085032      1.62556243
H       0.97120051     -2.15090062      0.72907476
H       2.61682689     -1.62305201      0.36140379
H       1.76327816      1.39818665     -1.31957414
H       2.90591391      0.61004546     -0.46867847
