12
b3lypvtz=-247105.38593284
C      -1.29030214      0.19342479      0.61645944
C      -0.11394265     -0.00438289     -0.01614430
N       1.05026900      0.36038310      0.61798067
N       2.07183939      0.13146232     -0.04592130
O       3.19961566      0.52595402      0.68636296
O      -0.09490267     -0.56054603     -1.26851237
N      -2.51115000     -0.07777310      0.05735675
H      -1.27120634      0.63542989      1.59986847
H       3.92116405      0.31007099      0.08422002
H       0.83478060     -0.62843292     -1.52951248
H      -3.28471953     -0.22865997      0.68048740
H      -2.51144537     -0.65693020     -0.76698111
