12
b3lypvtz=-200524.56287622
C      -1.91336769     -0.92822209     -0.00219466
C      -0.62782557     -0.57109566      0.00014003
C       0.57369017     -1.39443095      0.00351253
N       1.65152189     -0.68459963      0.00215437
N       1.27209133      0.63697551     -0.00918983
C      -0.10218901      0.82756791     -0.00061346
N      -0.79564485      1.89614688      0.00424122
H      -2.68788351     -0.17319431     -0.00412954
H      -2.21117643     -1.96804797     -0.00230155
H       0.62800113     -2.47197082      0.00790522
H       1.98565963      1.34188025      0.01740577
H      -0.21628011      2.73369289      0.00178089
