15
b3lypvtz=-214558.20328693
C      -0.72286731      1.93770741      0.00536704
C       0.04137440      0.63803674     -0.00236790
C       1.40318364      0.64826539      0.00819054
N       2.22170440     -0.42409420     -0.02928112
C      -0.66450762     -0.64497666     -0.00693986
N      -2.03625960     -0.59787808      0.00897368
O      -0.09568952     -1.74485130      0.00254629
H      -1.33729712      2.06971313     -0.89253653
H      -1.38877479      2.02287575      0.86990235
H      -0.03920550      2.78638512      0.04366538
H       1.91123429      1.60692843      0.02798131
H       1.77880788     -1.33356760      0.02894670
H       3.20447858     -0.31396654      0.13095998
H      -2.51533138     -1.47312859     -0.11398257
H      -2.53868635      0.24841601     -0.18472330
