16
b3lypvtz=-232749.1601393
C      -2.37482396      1.09048918     -0.17757637
C      -1.88286476     -0.26600403      0.24325058
O      -1.11092911     -1.01945496     -0.70368732
C      -0.48163444     -0.61081146      0.52327326
C       0.68064038      0.34245763      0.42174668
C       1.91651942     -0.35300495     -0.12160796
F       2.98103610      0.54932159     -0.16552065
H      -3.22996077      0.98399598     -0.84755123
H      -1.60910032      1.66035223     -0.69951695
H      -2.70355416      1.66105837      0.69394356
H      -2.63058523     -0.87010729      0.75413752
H      -0.31753826     -1.44016607      1.21035179
H       0.90543982      0.73907749      1.41613865
H       0.44005578      1.18539479     -0.22473055
H       1.74766205     -0.71965894     -1.13501994
H       2.22056146     -1.18812754      0.51420894
