17
b3lypvtz=-194387.83994393
C      -3.17560330     -0.23893130     -0.26504260
C      -1.84397187     -0.04355625      0.38986268
C      -0.69269909      0.13756068     -0.24981951
C       0.65235209      0.32630856      0.40829517
C       1.39786815      1.56052527     -0.09836076
C       1.45901332     -0.95194034      0.21665694
O       2.51033538     -1.02850285     -0.36307805
H      -3.62082320     -1.19375731      0.02782826
H      -3.88059153      0.53968433      0.03890939
H      -3.09565540     -0.22076530     -1.35209935
H      -1.84124087     -0.04396222      1.47746288
H      -0.68398326      0.14521465     -1.33745533
H       0.48543188      0.40184469      1.49012227
H       2.37819439      1.64322317      0.37041460
H       1.55697538      1.50223108     -1.17527015
H       0.82723021      2.46375383      0.11661386
H       0.98397971     -1.85414269      0.65582069
