14
b3lypvtz=-224557.6004569
C      -0.27155621     -1.68179895      0.35845972
N      -0.45658366     -0.24781244      0.31084320
N      -1.73768135      0.17089341      0.18251830
C      -2.00726167      1.37624380     -0.13798215
N       0.55058286      0.58396479     -0.08502161
C       1.73902675      0.16046654     -0.21648318
O       2.73998608      0.99815767     -0.57243607
H       0.47872350     -1.94814675      1.10683992
H       0.04520574     -2.08329363     -0.61304486
H      -1.22345936     -2.12142556      0.63539967
H      -3.05639254      1.63494034     -0.18274812
H      -1.25654639      2.12854997     -0.35305703
H       2.09952071     -0.85030174     -0.06396424
H       2.35643556      1.87956255     -0.68503873
