14
b3lypvtz=-203698.07232417
C      -1.59204540      1.41321674     -0.14546950
C      -0.48358560      0.70759562      0.03755393
C       0.92012449      1.21111072      0.24345516
C       1.75286037      0.00578862     -0.20660346
O       0.91302900     -1.14463145     -0.00815558
C      -0.40244903     -0.78413886      0.03111889
N      -1.29090449     -1.68028132      0.06954111
H      -1.58661993      2.49487652     -0.14558613
H      -2.54717075      0.92911538     -0.30648003
H       1.09368948      1.41586689      1.30317520
H       1.14393954      2.11716978     -0.31695759
H       2.01516180      0.06998667     -1.26562829
H       2.66026493     -0.14609024      0.37350693
H      -2.21523240     -1.26329305      0.13620437
