10
b3lypvtz=-248748.78633235
O      -2.37519899      0.10840275      0.83391696
C      -2.02951208      0.19122175     -0.31422790
C      -0.56767834      0.11934450     -0.77449763
O      -0.33802481      0.21427674     -1.95876690
C       0.43591628     -0.06270280      0.29884596
N       1.66801131     -0.13018276     -0.02561486
O       2.47726073     -0.29949959      1.07218779
H      -2.73489899      0.32790306     -1.15486778
H       0.09967931     -0.13432793      1.32856227
H       3.36434558     -0.33433573      0.69436209
