19
b3lypvtz=-192748.17395998
N      -2.39070020     -0.01056521      0.18146731
C      -1.01625927      0.00890302     -0.32942051
C      -0.29348388      1.26138563      0.17066693
C       1.19248068      1.23669149     -0.20252150
C       1.84502609     -0.06531944      0.25884544
N       1.11130728     -1.20084953     -0.29655100
C      -0.27547925     -1.23821799      0.15978475
H      -2.90959705     -0.78154264     -0.22455826
H      -2.87696876      0.83677664     -0.08933563
H      -0.96813530      0.00284297     -1.42788718
H      -0.40616702      1.30563613      1.25866963
H      -0.77366486      2.15734690     -0.23412317
H       1.70816148      2.08968643      0.24421328
H       1.30482455      1.31974037     -1.28675440
H       1.86684169     -0.08155369      1.36290811
H       2.87881413     -0.11586352     -0.08774923
H       1.57852760     -2.06904893     -0.07169337
H      -0.75149075     -2.13606799     -0.24290062
H      -0.37074217     -1.27741563      1.25753643
