15
b3lypvtz=-214543.5564628
C      -2.61386733     -0.84374137      0.11632964
C      -1.46076889      0.12941492     -0.02509879
O      -1.60859647      1.32912191      0.11867636
N      -0.24951760     -0.43368091     -0.32572038
C       0.95594758      0.35367775     -0.50428978
C       2.03451631     -0.02850378      0.48014793
N       3.24912997     -0.27790207      0.23076691
H      -2.33113353     -1.88636232     -0.02695461
H      -3.04811044     -0.72508606      1.10853460
H      -3.38208235     -0.57915399     -0.60987597
H      -0.19441952     -1.43084197     -0.44109581
H       1.33511886      0.26684247     -1.52708987
H       0.65929035      1.39207126     -0.33956756
H       1.70529656     -0.08637933      1.52061263
H       3.44049949     -0.19871351     -0.77179130
