13
b3lypvtz=-270376.20414613
C      -0.21766222      1.56119984     -0.19075478
C      -0.21331327      0.25558715      0.03695891
C       0.96507039     -0.64152630     -0.22855186
O       2.09510904      0.13420626     -0.58774806
C      -1.39903608     -0.45206453      0.62784238
F      -2.49252710      0.35437938      0.71069207
F      -1.74671203     -1.52822260     -0.16100101
H      -1.09002041      2.16160456      0.02119651
H       0.65846978      2.04836218     -0.59189792
H       0.69715753     -1.34739008     -1.02343504
H       1.16928229     -1.24112297      0.67099952
H       2.77981342     -0.45566983     -0.91324135
H      -1.20563134     -0.84934306      1.62874064
