16
b3lypvtz=-202057.23053178
C      -3.13618081     -0.29713070     -0.02311300
N      -1.82321945      0.30669952     -0.00440334
C      -0.80330040     -0.45563915      0.02085608
C       0.54521364      0.06860347      0.02112712
N       0.72700339      1.46780792     -0.06438668
C       1.60481648     -0.76841176      0.03296236
N       2.91698463     -0.32623625      0.02343621
H      -3.11467142     -1.39604244     -0.00751683
H      -3.71407395      0.05021917      0.83739761
H      -3.67851179      0.02577900     -0.91575020
H      -0.89466317     -1.55043506      0.02100181
H       1.27547588      1.83316602      0.70515753
H      -0.17998692      1.92065879     -0.07158606
H       1.45341111     -1.83548260      0.11531773
H       3.03827367      0.57618758     -0.41795430
H       3.60020811     -0.99948651     -0.28326104
