11
b3lypvtz=-215340.89761701
C       2.21636140     -1.03668870     -0.22973329
C       1.07817839     -0.68549234     -0.10854030
C      -0.32042784     -0.26495052      0.09829226
C      -0.46774774      1.19191621     -0.07957484
C      -0.61073048      2.36627065     -0.26381978
O      -1.09330277     -0.97343859     -0.85215587
O      -0.74640268     -0.54967679      1.41745991
H       3.22566103     -1.34480173     -0.34635838
H      -0.73096670      3.40953619     -0.41999889
H      -1.99431091     -0.63037916     -0.79656951
H      -0.55631172     -1.48229521      1.58099869
