18
b3lypvtz=-202822.41087792
C      -0.15600543      1.41088384      0.83950468
C       0.02234981      0.40040120     -0.29978030
C      -1.11851884     -0.63419309     -0.34216930
N      -2.40206361      0.02563301     -0.60185354
C       1.37177752     -0.29771827     -0.28406207
N       2.09144886     -0.27008364     -1.33792159
N       1.66879832     -0.98772523      0.87975101
H      -1.11641655      1.91173805      0.73422546
H       0.63549246      2.16134584      0.82897268
H      -0.15565446      0.93013463      1.82220814
H       0.01099410      0.94154890     -1.24718075
H      -0.86193931     -1.40123460     -1.08355829
H      -1.19211486     -1.13846975      0.62445860
H      -2.44107140      0.34714345     -1.56268650
H      -3.16668763     -0.62781588     -0.48489608
H       2.96209230     -0.78949623     -1.21433827
H       1.22752091     -0.68499803      1.73174566
H       2.61999781     -1.29709421      0.99758045
