14
b3lypvtz=-201266.99755388
C       1.17575034     -2.08602265     -1.00517191
N       0.86787699     -1.40889228      0.01486225
C       0.48668711     -0.06176432     -0.09687322
N       1.27085612      0.91010644     -0.34081004
C      -0.95104084      0.19181585      0.20570403
C      -1.27856679      1.13700203      1.31402052
N      -1.48942629      1.52135416     -0.07764579
H       1.13966904     -1.68762077     -2.02353812
H       1.49678036     -3.11737173     -0.88068948
H       2.22916645      0.59745619     -0.48184744
H      -1.61935165     -0.63805460      0.01311703
H      -0.44075613      1.56739099      1.84834604
H      -2.17749794      0.97379691      1.89516451
H      -0.71014679      2.10080377     -0.38463838
