16
b3lypvtz=-204463.26810704
C       0.65054377      1.73021521     -0.00946702
C       0.52628443      0.21465883     -0.24064569
C       1.84342944     -0.42076063     -0.16109844
N       2.87735319     -0.92043284     -0.08211449
C      -0.44966363     -0.48071347      0.73491833
C      -1.90927141     -0.09634120      0.50633024
O      -2.35381095     -0.36484717     -0.82014903
H       1.35354390      2.17235135     -0.71398708
H       1.00367863      1.94103682      1.00055792
H      -0.31452069      2.21463035     -0.14932064
H       0.15262582      0.04622682     -1.25402407
H      -0.17135502     -0.24230406      1.76521708
H      -0.34605895     -1.56376842      0.62782259
H      -2.53580104     -0.61053767      1.24279724
H      -2.05931043      0.97350549      0.65115098
H      -2.40221607     -1.31790041     -0.94430792
