14
b3lypvtz=-227006.01205265
C       0.38491926     -0.95230716     -0.06538063
C      -0.83451295     -0.18453333      0.45473955
C      -0.72419478      1.13408784     -0.31458509
O       0.68025953      1.32945421     -0.54754181
C       1.35985896      0.14182449     -0.42635170
N       2.59973501      0.01018128     -0.58979121
O      -2.09510571     -0.76885730      0.17192918
H       0.82480860     -1.65571165      0.63722274
H       0.10299208     -1.49813489     -0.96944927
H      -0.73191664      0.00444028      1.52851363
H      -1.25308353      1.04812615     -1.26708317
H      -1.10097010      1.99633153      0.23096800
H       3.03139637      0.89778981     -0.84525907
H      -2.24418613     -1.50269125      0.77495499
