13
b3lypvtz=-216177.20318135
C      -2.56934379     -0.39514770      0.00001498
C      -1.11418076     -0.05581597     -0.00008914
C      -0.56451424      1.17978569     -0.00011167
O       0.81919180      1.08735176     -0.00020952
C       1.10675929     -0.23152618     -0.00036053
O       2.40620528     -0.57062349     -0.00009779
C      -0.01517639     -0.99017627     -0.00024835
H      -3.18417812      0.50486300     -0.00003320
H      -2.83833266     -0.98533327     -0.87898555
H      -2.83825186     -0.98518278      0.87914095
H      -0.96524282      2.17634796     -0.00024531
H       2.93659886      0.23484758     -0.00338431
H      -0.06057660     -2.06471232     -0.00039758
