9
b3lypvtz=-233091.59963324
C      -0.65537569      0.88272748     -0.04461710
C      -0.08666439     -0.34745336     -0.18768373
O      -1.05178104     -1.23679395     -0.42022943
N      -2.27433322     -0.50106861     -0.41801448
N      -2.00151915      0.70708047     -0.19959383
N       1.21407306     -0.86443228     -0.14768858
N       2.07782390      0.00459030      0.07205708
H      -0.20574343      1.83731709      0.15035576
H       2.98351994     -0.48196713      0.07967664
