12
b3lypvtz=-226234.35076356
N       2.42546034      0.34874437     -0.38848230
C       1.61502614     -0.60033921     -0.20396425
C       0.45740318     -0.64686554      0.78368405
C      -0.85011160     -0.53148202      0.03113887
O      -1.44976568     -1.46372708     -0.44825704
C      -1.42300853      0.87979413     -0.16922833
O      -0.92237537      1.86816566      0.29535295
H       2.22209565      1.14289037      0.22255397
H       1.72499952     -1.49530553     -0.81887934
H       0.46029115     -1.60860837      1.29771280
H       0.54977661      0.16940368      1.49861119
H      -2.34672240      0.89162555     -0.77678956
