14
b3lypvtz=-227002.0481004
C       1.84513205     -0.95824970     -0.24554095
C       0.55256752     -0.51739430      0.40864676
O      -0.53211568     -1.33051109     -0.04566872
C      -1.67279724     -0.51517656      0.01151997
O      -1.23659974      0.82184179     -0.22986158
C       0.09184691      0.89390685      0.05595202
N       0.70254728      1.99217388      0.00368732
H       1.76837677     -0.88647102     -1.32985992
H       2.67330886     -0.33348711      0.09167668
H       2.06858681     -1.98979153      0.02464482
H       0.63634775     -0.59042706      1.50264414
H      -2.14955818     -0.55542410      0.99948078
H      -2.37122970     -0.81036935     -0.76898113
H       1.68709059      1.87057532      0.22365481
