14
b3lypvtz=-229597.00753077
C      -1.57842551     -1.44105400      0.37071568
C      -1.14519015     -0.22533588      0.00493577
N      -1.99275375      0.81527614     -0.38319594
C       0.28113879      0.16402382      0.06806217
N       0.55463853      1.50368064      0.36973322
C       1.23782034     -0.70498641     -0.26728652
F       2.54670550     -0.33929411     -0.17168191
H      -2.61696639     -1.72375542      0.25869680
H      -0.90785685     -2.15520102      0.81949104
H      -2.93510174      0.53380121     -0.60403490
H      -1.60360114      1.45221794     -1.06186518
H       1.53150681      1.68460726      0.54602505
H      -0.03892364      1.88928856      1.08941688
H       1.08923320     -1.69674572     -0.65695215
