14
b3lypvtz=-252928.47600308
N      -2.14445427      0.61754535      0.05834160
C      -1.19086795     -0.32898080     -0.09137060
O      -1.40582441     -1.52855484     -0.05716885
C       0.22121263      0.22587932     -0.33947403
N       0.34528478      1.62353715      0.08100252
C       1.25537118     -0.71458858      0.26713028
F       2.53078924     -0.24566343     -0.06580143
H      -1.88838261      1.58845589     -0.01154947
H      -3.10211268      0.33337874      0.16857213
H       0.35857521      0.20666398     -1.42512003
H       1.20309420      2.01583360     -0.28732454
H       0.41283319      1.68291613      1.09226387
H       1.18392637     -0.73020776      1.35760936
H       1.14747413     -1.72605775     -0.11667681
