17
b3lypvtz=-191942.94501795
C       2.25971380      0.47411378     -0.25149660
N       0.80205579      0.46569944     -0.31575203
C       0.23595042     -0.81587727     -0.77123884
C       0.17671086     -0.43115490      0.66922454
C      -1.34630700     -0.19336757      0.57208865
C      -1.26355353     -0.59231357     -0.94596593
N      -1.90836486      1.10811971      0.86325820
H       2.69672262     -0.49770438      0.02097367
H       2.58148820      1.21111755      0.48572818
H       2.65876062      0.76785890     -1.22337192
H       0.86828180     -1.54394883     -1.25935128
H       0.75164399     -0.79387312      1.51174619
H      -1.89296820     -0.94985117      1.13533770
H      -1.82539653     -1.49705745     -1.17307888
H      -1.53420726      0.19599566     -1.64775809
H      -1.95280550      1.26871560      1.86294853
H      -1.30772521      1.82352760      0.46670792
