13
b3lypvtz=-211309.99009741
C      -3.43423989     -0.04624152     -0.00002691
C      -2.18081203     -0.50672593      0.00003597
C      -1.01699148      0.35022847     -0.00005381
N       0.16335142     -0.15188044      0.00000324
N       1.19554024      0.70951148     -0.00006360
N       2.49433817      0.35602429     -0.00014932
N       2.72423004     -0.86912477     -0.00000076
H      -3.64861604      1.01583888     -0.00009368
H      -4.28243925     -0.71586156     -0.00001067
H      -1.97752344     -1.57115862      0.00016348
H      -1.18112571      1.43428178     -0.00017374
H       1.05446308      1.71145246     -0.00033364
H       3.74449190     -0.93798253     -0.00018557
