16
b3lypvtz=-204424.18504743
C       0.65120606     -1.27759497     -0.25248641
C      -0.85318752     -1.05095587     -0.40905481
C      -1.35531227     -0.23339270      0.75894024
C      -0.64714050      0.45360949     -0.36305749
C       0.86817672      0.26947103     -0.29172891
N       1.55538447      0.86226217      0.85174990
O      -1.25168582      1.42975978     -1.15117683
H       0.95286872     -1.75417138      0.68187240
H       1.11790935     -1.79316510     -1.08990024
H      -1.52542575     -1.62267245     -1.03209039
H      -0.89405078     -0.32264514      1.73553448
H      -2.42593727     -0.07322801      0.76414075
H       1.29187687      0.55333943     -1.26244442
H       2.52327687      0.55955556      0.87478410
H       1.57704313      1.87281981      0.76234001
H      -1.58500228      2.12700836     -0.57742237
