13
b3lypvtz=-296297.91154604
C      -2.84454627      0.13466533      0.03147908
N      -1.48791393     -0.39514431      0.06280796
C      -0.47398821      0.61303319     -0.15638499
C       0.91649162      0.03776751      0.01734548
F       1.15063859     -0.39945681      1.26380183
F       1.85130474      0.96906314     -0.26709344
F       1.12575606     -1.00612015     -0.81939749
H      -3.55294824     -0.68303184      0.15861812
H      -2.98573681      0.82705389      0.86354714
H      -3.09733149      0.66937196     -0.89688961
H      -1.38606196     -1.13860691     -0.61634822
H      -0.58497285      1.40635044      0.58498707
H      -0.50026624      1.08601857     -1.15036494
