16
b3lypvtz=-202031.9512247777
C      -2.67681256      0.13729780     -0.19097178
C      -1.54461292     -0.14494703      0.80905609
C      -0.37568979     -0.82374133      0.18405011
N       0.80569158     -0.30047804      0.17140987
N       1.90867509     -0.83074537     -0.36427077
C       2.95621915      0.03225912     -0.17570458
N       2.85473925      1.16718886      0.42426593
H      -3.01529705     -0.78201699     -0.67100259
H      -2.34749414      0.82226093     -0.97237189
H      -3.53216163      0.58371460      0.31722512
H      -1.21920443      0.78533835      1.28006847
H      -1.93466636     -0.78012022      1.61181341
H      -0.47727375     -1.78897117     -0.29638789
H       0.97707785      0.62395278      0.60761009
H       3.88277831     -0.36026552     -0.59496134
H       3.73803139      1.65927323      0.46681645
