18
b3lypvtz=-205215.56725245
C       1.55155505      1.27700166     -0.37933758
C       1.38722001     -0.00257943     -0.03429177
N       2.46023444     -0.89717090      0.10541964
C       0.05126834     -0.68101346      0.16717118
C      -1.21050063      0.06683127     -0.26827633
C      -2.43773845     -0.84090685     -0.22716983
O      -1.44178890      1.25645481      0.49156219
H       0.70821389      1.93244437     -0.51440958
H       2.54199805      1.69220870     -0.51879987
H       2.31838380     -1.61996814      0.79554508
H       3.35711917     -0.45149020      0.22963826
H       0.08474214     -1.63319746     -0.37234159
H      -0.05315546     -0.95280971      1.22812578
H      -1.06826720      0.42552086     -1.28943232
H      -3.32528865     -0.27628338     -0.51084849
H      -2.59542246     -1.23863641      0.77937925
H      -2.33102959     -1.68598667     -0.90996749
H      -1.43069757      1.03042194      1.42767646
