15
b3lypvtz=-214486.0975538
N      -2.60782671     -0.31416350     -0.37983232
C      -1.42471001     -0.06406998      0.42989951
C      -0.19609269     -0.95922567      0.08750097
C       0.61046891      0.31108869     -0.04404142
N       1.83529576      0.61409291     -0.08081610
O       2.64363527     -0.54997770     -0.06984088
C      -0.60732604      1.20083582      0.01940459
H      -3.01150134     -1.21558627     -0.14814737
H      -3.32281260      0.37943757     -0.18758514
H      -1.61118865     -0.06591815      1.51010148
H       0.14385637     -1.67087583      0.83866378
H      -0.32171974     -1.47474103     -0.86691805
H       3.53177075     -0.18053393     -0.08620587
H      -0.57442701      2.03343882      0.72072736
H      -0.91147524      1.56305123     -0.96471353
