17
b3lypvtz=-215288.71947007
N      -3.46907231      0.13112675     -0.21387094
C      -2.14146465      0.40957746      0.00241748
N      -1.28578909     -0.48084271      0.27951133
C       0.07050817     -0.06190865      0.57114077
C       1.07392245     -0.72989483     -0.37140983
C       2.52902226     -0.42612073     -0.03540728
O       2.88707167      0.94468428     -0.22002741
H      -3.69129944     -0.84091853     -0.36293634
H      -3.99415557      0.78364977     -0.77008746
H      -1.90593836      1.48072306     -0.04008647
H       0.17719900      1.03360051      0.51508965
H       0.30827719     -0.35580630      1.60058076
H       0.87076979     -0.41669879     -1.39861760
H       0.91950156     -1.81175028     -0.32956560
H       3.18480046     -0.98618532     -0.70244416
H       2.75641866     -0.74776931      0.98919007
H       2.46584822      1.46755762      0.46746104
