10
b3lypvtz=-199794.87842551
N      -2.87950145      0.00054012     -0.00009542
C      -1.72849584     -0.06470268     -0.00003534
C      -0.31035138     -0.09467098     -0.00003013
N       0.45286168     -1.16955895      0.00021028
C       1.73488676     -0.70375830      0.00003970
C       1.75186143      0.66983507      0.00001657
N       0.44022645      1.05084804      0.00000677
H       0.08453118      1.99223161      0.00000936
H       2.57630980     -1.37527689     -0.00003987
H       2.55611937      1.38339496      0.00000709
