11
b3lypvtz=-267228.88246949
C      -0.08369660     -0.23380093     -0.41699124
C      -0.58548434      0.17470829      0.76192901
N      -1.89530603      0.43394955      1.04799206
F       0.17001311      0.33237749      1.85049804
C       1.27495975     -0.61541247     -0.71636453
N       1.67198918     -0.98060550     -1.85288251
F       2.12647244     -0.54942133      0.34957962
H      -0.76469102     -0.30439887     -1.25133625
H      -2.51977734      0.53179841      0.26531975
H      -2.05877358      1.07706573      1.80614211
H       2.66429443     -1.20400215     -1.84388606
