15
b3lypvtz=-216929.00707119
C      -0.09668721      1.28843931     -0.86535022
C      -0.09198763     -0.07635086     -0.23121625
O       1.22507744     -0.64077469     -0.09247836
C       2.02952091     -0.14046851      0.86061897
O       1.77470719      0.74419647      1.62761499
C      -1.11973328     -1.10269919     -0.58126787
C      -1.09514538     -0.48131487      0.79995110
H       0.41311492      1.26158744     -1.83033557
H      -1.12285729      1.61571556     -1.03368553
H       0.39514483      2.01937936     -0.22495971
H       2.98404672     -0.68336835      0.82740786
H      -1.90310775     -0.81744067     -1.26976733
H      -0.78262234     -2.12546672     -0.67150939
H      -0.75123561     -1.09778497      1.61751527
H      -1.85843552      0.23615068      1.06726205
