14
b3lypvtz=-203668.44909538
N      -2.01106975     -0.56210650      1.10693992
C      -1.00544346     -0.25781862      0.40993370
C      -0.67361724      1.11163194     -0.18342027
C       0.66146635      0.69575905     -0.82712829
C       1.37557196     -0.12232086      0.26856945
C       0.19551264     -1.05723737     -0.08344620
O       0.29016551     -0.57756714     -1.46860819
H      -1.98947042     -1.54747198      1.37534457
H      -1.40583926      1.41947096     -0.92858208
H      -0.59040529      1.88801542      0.57752770
H       1.17511609      1.38995653     -1.48480982
H       1.44784629      0.28681973      1.27632171
H       2.32355872     -0.53002702     -0.07314544
H       0.20670787     -2.13700415      0.03440325
