13
b3lypvtz=-190457.04529835
C       3.00434755     -0.57128805     -0.18207273
N       1.77144149     -0.45474325      0.09569485
C       1.13670087      0.75352144     -0.19795056
C      -0.15237906      0.96178001      0.07634273
C      -1.04714250     -0.05358434      0.73734262
C      -2.28607175     -0.27246324     -0.00851069
N      -3.26129352     -0.43173554     -0.59742404
H       3.59469322      0.23146107     -0.63793621
H       3.51266451     -1.50566283      0.03561546
H       1.72530005      1.54320696     -0.66642583
H      -0.59393492      1.91619065     -0.17905176
H      -0.51585251     -0.99877531      0.84540094
H      -1.32195344      0.28426445      1.74221023
