14
b3lypvtz=-222175.97749314
C      -2.72358965     -0.25170774     -0.63157216
N      -1.49454386      0.49962724     -0.50997426
N      -0.37791222     -0.12414717     -0.20686975
N       0.65636136      0.57142167     -0.32876216
C       1.85336950     -0.13935704      0.05110161
N       1.97936482     -1.33047251      0.47663965
N       2.92723587      0.70533208     -0.08634046
H      -2.91841132     -0.56515165     -1.66137809
H      -2.64491661     -1.13667621     -0.00522584
H      -3.55978185      0.35418110     -0.28368577
H      -1.40327001      1.43187491     -0.90299478
H       1.06668078     -1.76946830      0.55835634
H       3.83157368      0.26633689     -0.07174441
H       2.80783951      1.48820673     -0.70508048
