17
b3lypvtz=-194363.43067254
C       3.30401821     -0.00007275     -0.25260078
C       1.96085358     -0.00011561      0.40825397
C       0.79022509      0.00002910     -0.22338907
C      -0.54114267     -0.00002252      0.44203578
C      -1.59906375     -1.03295997     -0.02096461
O      -2.58300069      0.00009453     -0.24784620
C      -1.59903499      1.03306423     -0.02070199
H       3.88817324      0.87622197      0.04225838
H       3.21713390      0.00003473     -1.33952598
H       3.88814362     -0.87644528      0.04208446
H       1.96259428     -0.00027538      1.49595845
H       0.77871722      0.00019513     -1.31214384
H      -0.42317184     -0.00016487      1.52530606
H      -1.92988995     -1.75936810      0.72407991
H      -1.34031104     -1.55666928     -0.94677594
H      -1.34027195      1.55700145     -0.94638064
H      -1.92984126      1.75928761      0.72453204
