15
b3lypvtz=-240220.32168289
O       2.49323294      0.42090906     -0.00620706
C       1.46184549     -0.47997927      0.38635363
C       0.19763331     -0.27031316     -0.43544036
C      -0.45524367      1.10803943     -0.26274169
O      -1.84837678      0.81788973     -0.33851523
C      -1.98493136     -0.42467349      0.29963110
O      -0.82268381     -1.18361167     -0.01004668
H       2.84756347      0.13569909     -0.85374672
H       1.25313996     -0.27026938      1.43639816
H       1.78317159     -1.52315758      0.31243806
H       0.41206909     -0.46252769     -1.49358590
H      -0.19919916      1.54279325      0.71142391
H      -0.20791805      1.81787851     -1.04702609
H      -2.06067227     -0.29933252      1.38989560
H      -2.86963074     -0.92934433     -0.08863074
