14
b3lypvtz=-201307.60726247
C      -1.87194014     -1.11736885     -0.01067096
C      -0.46556795     -0.61233388      0.00878549
C       0.71198395     -1.32738451      0.01504695
N       1.72441382     -0.43171545      0.00851323
H       2.71100550     -0.61061202     -0.00082929
N       1.28653866      0.85083768      0.00842025
C      -0.03558946      0.74278146      0.00253820
N      -0.85313899      1.86992565     -0.08393272
H      -2.40778581     -0.88398105      0.91492695
H      -1.90044127     -2.20011982     -0.13504429
H      -2.44094823     -0.67304058     -0.83140063
H       0.88990165     -2.39013171      0.01536352
H      -0.33498961      2.72375582      0.06746756
H      -1.66449213      1.83234526      0.51547673
