16
b3lypvtz=-204435.49692226
C      -1.36068696      1.57988550     -0.25951647
C      -0.70779654      0.46447032      0.06010514
C      -1.33396931     -0.88192337     -0.01778080
N      -2.56120484     -1.18617374      0.09792686
C       0.73252266      0.49140719      0.50187020
O       1.51637143     -0.21953504     -0.44154003
C       2.86660280     -0.35336417     -0.04568325
H      -2.38845107      1.56133785     -0.60003548
H      -0.88352282      2.54940164     -0.20471707
H      -0.63162083     -1.69921099     -0.18484087
H      -3.12981127     -0.35464174      0.27670923
H       1.08216457      1.52724135      0.59436439
H       0.82984684      0.02026023      1.49208061
H       3.35136257      0.62441208      0.06616325
H       3.37726010     -0.91438957     -0.82583953
H       2.95579467     -0.89678053      0.90318583
