14
b3lypvtz=-222169.30598812
C      -1.71039390      0.30022231      0.23081207
C      -0.39989818      0.62848104      0.15622592
N      -0.01417694      1.99912889      0.21549399
N       0.51293020     -0.42106234      0.01965225
N       1.71415417     -0.08583335     -0.07680290
N       2.56349558     -1.15487244     -0.10655719
N      -2.23345363     -0.96123405      0.07605465
H      -2.42461805      1.09990631      0.36710698
H       0.72839675      2.11647791      0.89836145
H       0.39460848      2.28906404     -0.66836497
H       2.12187847     -2.02470609     -0.39298260
H       3.41010979     -0.92660089     -0.60407910
H      -1.56022212     -1.71057692      0.12776607
H      -3.10281062     -1.14839442      0.54617114
