16
b3lypvtz=-204457.89319347
C      -2.51977089     -0.64187035      0.45919002
C      -1.28823390      0.22404870      0.35941431
C      -0.93805497      0.92809604     -0.90943486
C      -0.09464031     -0.24387461     -0.45092565
C       1.28445006     -0.02316659      0.05114292
N       1.78106508      0.96854347      0.66586430
O       2.07469765     -1.09251511     -0.21949930
H      -2.72157533     -1.14828750     -0.48647979
H      -2.40570820     -1.40612149      1.23028219
H      -3.39804837     -0.04228822      0.70826054
H      -1.02571553      0.74809607      1.27135532
H      -1.56665972      0.76824247     -1.77533509
H      -0.48810827      1.91035421     -0.85570181
H      -0.21583382     -1.17181807     -0.99176146
H       1.10658258      1.71286108      0.81207632
H       2.94817095     -0.87652310      0.13877502
