12
b3lypvtz=-247120.15555431
C      -2.26022195     -0.11973164     -0.20394283
N      -0.94239359     -0.22333679      0.39115961
C       0.18018910      0.14054111     -0.27040295
O       0.26243649      0.58149949     -1.38344181
O       1.25879269     -0.09159869      0.59159724
N       2.49989511      0.25197434      0.00293180
N       3.37552445      0.02040928      0.81822352
H      -2.14446283      0.29633446     -1.20101033
H      -2.73503346     -1.09947787     -0.28290014
H      -2.90429496      0.53891570      0.38137150
H      -0.83712705     -0.57967632      1.32534125
H       4.24669599      0.28414691      0.34564533
