15
b3lypvtz=-216910.10351771
O      -0.45180269      1.27045925     -1.65419120
C      -0.22682043      0.60271430     -0.44695797
C       1.09385267      0.84123786      0.26506979
O       1.29988713     -0.30683516      1.08404286
C       0.68741658     -1.43372432      0.44162456
C      -0.48089854     -0.86934950     -0.33325397
C      -1.36868865      0.11744676      0.39772642
H      -0.80843167      2.14346832     -1.45965557
H       1.10728709      1.71468301      0.92049029
H       1.88135381      0.95170087     -0.49190238
H       1.39269069     -1.92505377     -0.24081045
H       0.41447026     -2.13905533      1.22789703
H      -0.88801984     -1.41532376     -1.17192087
H      -1.29357546      0.19123492      1.47557319
H      -2.35882094      0.25639655     -0.01383172
