16
b3lypvtz=-204464.6053109
C       0.78385811      1.81529074     -0.32940712
C      -0.01142789      0.82827759      0.52073904
N      -1.41294829      0.76840230      0.04859008
C      -1.62713271     -0.43024079     -0.28493688
O      -0.65617602     -1.36058799     -0.13384707
C       0.46087658     -0.66324515      0.50693512
C       1.74244333     -1.01474720     -0.22064502
H       0.31367214      2.79630364     -0.27040443
H       0.80037985      1.51760849     -1.37819247
H       1.81272525      1.90691656      0.02221555
H      -0.01843239      1.19393196      1.54945529
H      -2.55077692     -0.80758268     -0.70525566
H       0.50488726     -1.04617642      1.52843822
H       1.89298814     -2.09420420     -0.20899704
H       1.71699104     -0.68481468     -1.25848774
H       2.59902551     -0.54941819      0.26932412
