23
b3lypvtz=-173371.66477008
C       2.63072228     -0.82544134     -0.39666001
C       1.97359276      0.16406499      0.56904461
C       0.83188875      1.00559701     -0.04012602
C      -0.60389025      0.54553549      0.27729837
C      -1.60780401      1.56465724     -0.27364325
C      -0.89479301     -0.87916725     -0.22210652
C      -2.26347633     -1.43494166      0.17624446
H       1.91884068     -1.55547018     -0.78353146
H       3.05973457     -0.30211938     -1.25415946
H       3.43784667     -1.37587241      0.09075056
H       2.74852025      0.83751193      0.94304853
H       1.60268622     -0.37194249      1.44810078
H       0.95627001      1.05399914     -1.12801596
H       0.92562742      2.03611237      0.31236198
H      -0.70505137      0.53454901      1.37039222
H      -1.57786953      1.58772099     -1.36668300
H      -2.63098500      1.33700191      0.02521774
H      -1.37872782      2.57043302      0.08360218
H      -0.79510487     -0.89906068     -1.31330967
H      -0.12740555     -1.55258562      0.16510743
H      -2.36283144     -2.47764753     -0.13023567
H      -3.08307210     -0.88184073     -0.28341571
H      -2.40376832     -1.39578684      1.25934187
