18
b3lypvtz=-205208.14438014
C      -2.62296438      0.21009911     -0.10854437
N      -1.34528167     -0.37787457     -0.48847059
C      -0.30299297     -0.27633293      0.53388918
C       0.36386348      1.11239298      0.51269047
C       1.49462337      0.90653361     -0.48772311
O       1.98531260     -0.40249223     -0.20143464
C       0.87962666     -1.21289410      0.19477543
H      -3.36185807      0.00179236     -0.88241533
H      -3.01319802     -0.16100842      0.85249580
H      -2.53363621      1.29441920     -0.02874667
H      -1.48295336     -1.35061236     -0.73102767
H      -0.70149097     -0.50239465      1.53390350
H       0.77281288      1.34988664      1.49632154
H      -0.32871801      1.90213446      0.22597511
H       2.32366562      1.60408812     -0.37482928
H       1.11778638      0.96222337     -1.51556590
H       0.60331151     -1.89501006     -0.61800758
H       1.19316915     -1.81010454      1.05259011
