16
b3lypvtz=-204458.31767852
C      -1.61795867      0.90445420      0.39419455
C      -0.70861574      0.14633243     -0.56773139
C      -0.42608146     -1.31512013     -0.09976535
C       1.00465356     -1.25996868      0.36916946
C       1.51804704     -0.07381623      0.04563868
O       2.77308691      0.38084218      0.29379468
N       0.64029202      0.77703398     -0.64868190
H      -2.60879694      0.44734068      0.42450624
H      -1.20609430      0.88902432      1.40574872
H      -1.74290741      1.94550654      0.08620339
H      -1.15711554      0.15243513     -1.56180760
H      -1.13474112     -1.62103682      0.67640502
H      -0.55233111     -2.01827168     -0.92918297
H       1.55584328     -2.07804273      0.80104093
H       3.01613337      0.99927668     -0.40565698
H       0.64658611      1.72381014     -0.28407549
