10
b3lypvtz=-248797.22001731
C       1.81468684     -0.54639246     -0.46097402
O       2.54455408     -0.75363702     -1.39003682
C       0.34544530     -0.12251102     -0.70318495
O      -0.11115645     -0.02854631     -1.81255596
C      -0.49440757      0.17183782      0.55212421
O      -0.00126572      0.07992540      1.66265653
N      -1.76287907      0.52316322      0.27210123
H       2.12724179     -0.64063873      0.58862666
H      -2.39764556      0.74320262      1.02013427
H      -2.06457363      0.57359647     -0.68662324
