18
b3lypvtz=-181905.4466399
C       1.59458386     -1.73309781      0.07435775
C       0.84355684     -0.62582960     -0.05029185
C      -0.60053093     -0.67579922      0.21433075
C      -1.50964995      0.19263700     -0.23240158
C      -2.98082220      0.08985063      0.01525225
N       1.38120976      0.59016244     -0.52303581
C       1.37172606      1.74441892      0.37986170
H       2.65983979     -1.72140719     -0.11688320
H       1.14686576     -2.68329570      0.32723475
H      -0.93039143     -1.53111411      0.79536342
H      -1.17590495      1.02696127     -0.84047970
H      -3.35831789      0.97601026      0.53442076
H      -3.53372349      0.02601740     -0.92657900
H      -3.22941005     -0.78601601      0.61542055
H       2.31340042      0.43748103     -0.88235757
H       1.96422331      1.58221550      1.28959844
H       0.35415713      1.97967252      0.68118365
H       1.77544797      2.60820566     -0.14828630
