15
b3lypvtz=-191179.41527273
C       1.50836190     -0.32570147      0.65592726
C       0.72918739     -0.87678359     -0.47920270
C      -0.77635982     -0.97338539     -0.39434604
N      -1.48440531     -0.53338446      0.81042709
C      -1.29982080      0.41778145     -0.28966707
C      -0.09631777      1.35238512     -0.29275251
N       1.13792884      0.54570625     -0.46180708
H       2.56944813     -0.53462411      0.73063142
H       1.02622263     -0.19067535      1.61806032
H       1.21495276     -1.51610875     -1.20666907
H      -1.26437406     -1.75465132     -0.96218880
H      -0.85394322     -0.35659982      1.58317529
H      -2.21358408      0.74699367     -0.77105933
H      -0.02988384      1.97071010      0.60641516
H      -0.16751275      2.02823768     -1.14704395
