16
b3lypvtz=-202034.83143679
C      -1.92685271     -0.60686162     -0.39848614
C      -0.86276189      0.38502999     -0.89200268
C       0.33252436      0.51155783      0.01816969
N       0.43967312      1.58569299      0.72500023
N       1.53273060      1.75837427      1.50131440
N       1.30171043     -0.49164478      0.15934699
C       1.37641712     -1.48167644     -0.63191949
H      -2.32335107     -0.29215324      0.56753929
H      -2.75848402     -0.66015532     -1.10313033
H      -1.52733166     -1.61486117     -0.28027827
H      -0.53875327      0.10430461     -1.89928112
H      -1.30099991      1.37831578     -0.97417633
H       2.04634514      0.91189667      1.72759595
H       1.34348325      2.37863187      2.27068090
H       2.14399493     -2.23191795     -0.45977687
H       0.72165557     -1.63453348     -1.49260548
