10
b3lypvtz=-251359.19111149
C       0.98637577      0.54265592      0.60569805
C       0.06234639     -0.12054653     -0.13765844
O       0.66649567     -0.89377773     -1.02231235
N       2.12982538     -0.67237658     -0.78747933
N       2.21526072      0.14229629      0.13683167
C      -1.42628978     -0.11072672     -0.11008814
F      -1.86630751      0.75375985      0.87644403
H       0.86893739      1.24647423      1.40678743
H      -1.82477528      0.22257408     -1.07101051
H      -1.81186876     -1.11033280      0.10278759
