21
b3lypvtz=-172608.19921281
C       2.92644347      0.54742944     -0.29886839
C       2.00356021     -0.67964882     -0.33078147
C       0.63797028     -0.35955587     -0.86582493
C      -0.54823847     -0.44858012     -0.25694647
C      -0.75064809     -0.94447376      1.15088868
C      -1.81190727     -0.04918325     -0.98764075
C      -2.47134131      1.23173214     -0.45439215
H       2.53454842      1.31293651      0.37278648
H       3.01997843      0.99479623     -1.29050462
H       3.92807322      0.27768072      0.04095576
H       1.94632063     -1.11509109      0.66683562
H       2.46279380     -1.44231462     -0.96971489
H       0.63898825      0.00744506     -1.89043923
H       0.17781235     -1.22156332      1.64405788
H      -1.24040169     -0.18848257      1.76976521
H      -1.40657146     -1.82057501      1.15476109
H      -2.53694503     -0.86885461     -0.92408015
H      -1.58584298      0.08332726     -2.04750839
H      -1.78607735      2.07808593     -0.52509645
H      -3.36578554      1.47319350     -1.03127910
H      -2.77272986      1.13169625      0.58901841
