14
b3lypvtz=-226997.18788265
C       1.94554302     -0.68824423     -0.27484896
C       1.23162820      0.41480720     -0.02782507
C      -0.25185240      0.45174011      0.03790407
N      -0.77406613      1.58498520      0.28457526
C      -1.06074518     -0.81221337     -0.20271791
O      -2.44723390     -0.61698356      0.01752008
O       1.81840157      1.61361202      0.18055755
H       1.46561895     -1.63910724     -0.43884325
H       3.02377873     -0.64865617     -0.31957689
H      -1.79213301      1.52593203      0.28769841
H      -0.94936532     -1.11228137     -1.24622213
H      -0.66840735     -1.62736153      0.41076775
H      -2.62575561     -0.68613543      0.96043977
H       1.08458842      2.23990635      0.33057132
