12
b3lypvtz=-226261.43060233
C      -1.35125547     -0.79656118      0.03251613
C      -0.09849108     -0.01109539     -0.34984295
C       0.07578073      1.26226907      0.47086200
O      -0.63813521      2.19666369      0.64300190
O       1.33771237      1.15794062      1.06424820
C       1.84157438     -0.05351190      0.64132757
N       1.14118968     -0.76425629     -0.12995642
H      -1.30901973     -1.10758880      1.07630015
H      -2.23566244     -0.17719405     -0.11191812
H      -1.43092451     -1.68649927     -0.58922640
H      -0.15739131      0.26962365     -1.40525203
H       2.82462260     -0.28979013      1.02386598
