17
b3lypvtz=-215271.82035129
C      -2.03442506     -1.36251436      0.33089506
N      -1.10721491     -0.66219977     -0.55909134
C      -0.55274875      0.54570118     -0.13101145
N      -1.49822290      1.49838069      0.28743785
C       0.76939097      0.77925528     -0.14694794
O       1.65628290     -0.22818946     -0.49009440
C       2.69759759     -0.42325006      0.45541202
H      -2.44125843     -2.22537557     -0.19566414
H      -2.85892196     -0.70717916      0.59946119
H      -1.56321301     -1.70843453      1.26009709
H      -0.37208916     -1.26845308     -0.89477784
H      -1.07428417      2.36617236      0.58070692
H      -2.20653033      1.67143400     -0.41606327
H       1.19303797      1.76427812      0.01795323
H       3.28969127      0.49003234      0.58363697
H       3.34191568     -1.21038875      0.06652869
H       2.29968429     -0.72213423      1.43064737
