21
b3lypvtz=-195912.7451316
C       2.63863237      0.42848121      0.03287879
C       1.65441857     -0.74340600      0.08207031
C       0.36984066     -0.55290404     -0.74541594
C      -0.86247355      0.03952297     -0.03811479
C      -0.61090128      1.43176908      0.54743877
C      -1.40936588     -0.90819698      1.03453348
O      -1.83057278      0.14796298     -1.10191909
H       2.21401588      1.34492324      0.44238561
H       2.93902392      0.63782053     -0.99604511
H       3.54290554      0.20224916      0.60102058
H       1.40719545     -0.97039004      1.12237072
H       2.16963705     -1.63142125     -0.29153248
H       0.58183467      0.08059184     -1.61065586
H       0.05013650     -1.51525247     -1.15045515
H       0.10216363      1.40400468      1.37208825
H      -1.54344604      1.84874075      0.93684016
H      -0.23301279      2.10694809     -0.22018619
H      -0.70006410     -1.05796815      1.84936877
H      -2.32519146     -0.50119946      1.47105133
H      -1.64387135     -1.87793857      0.59493325
H      -2.65094698      0.48862144     -0.73013541
