19
b3lypvtz=-171853.11713818
C      -2.54857025     -0.64586364      0.15941773
C      -1.13768281     -0.18604946     -0.01412434
C      -0.06088629     -0.93769569     -0.23703857
C       1.20369034     -0.13090797     -0.41530464
C       2.42741566     -0.68919291      0.31321494
C       0.76657709      1.27419296      0.07367888
C      -0.77460592      1.28374492     -0.00794244
H      -3.19774520     -0.22245942     -0.61339779
H      -2.62872309     -1.73184527      0.11102389
H      -2.95523982     -0.31572732      1.12007014
H      -0.07562831     -2.01774419     -0.32637564
H       1.44725587     -0.08701894     -1.48571521
H       2.23700255     -0.76918677      1.38592798
H       3.29724299     -0.04372838      0.17278845
H       2.69043839     -1.68292587     -0.05546305
H       1.07449791      1.39464926      1.11513092
H       1.23046369      2.08049663     -0.49493535
H      -1.13305587      1.76325449     -0.92698276
H      -1.23861692      1.82727858      0.81965685
