15
b3lypvtz=-216932.42084195
C       1.45272671      1.53869231      0.00002622
C       1.17582601      0.23278529     -0.00001526
C       2.23325205     -0.83335683     -0.00008080
C      -0.23343945     -0.25004061     -0.00000538
O      -0.48309845     -1.44271704      0.00002096
C      -1.40418440      0.72886989     -0.00000692
O      -2.62812717      0.04767747      0.00011221
H       0.68120252      2.29592237      0.00006509
H       2.47468710      1.89513969      0.00002254
H       2.13057447     -1.47963083     -0.87317913
H       2.13057493     -1.47976318      0.87291300
H       3.22934816     -0.39375477     -0.00004803
H      -1.32492205      1.37579529     -0.88187975
H      -1.32483364      1.37593845      0.88174928
H      -2.40143681     -0.89639350      0.00014598
