11
b3lypvtz=-212993.14290206
C       1.36073441     -1.24605999      0.55148521
N       0.76201210     -0.98483224     -0.53393710
C      -0.03033287      0.16839184     -0.66348590
C       0.02864041      0.81826263     -1.93700296
N       0.08524605      1.36022189     -2.95327452
C      -0.92944593      0.63979059      0.22548052
O      -1.09079890      0.10138319      1.45557079
H       1.92225148     -2.17433596      0.61548677
H       1.36165081     -0.59428450      1.42560492
H      -1.58487356      1.45566644     -0.05206303
H      -1.88508400      0.45569612      1.86613531
