15
b3lypvtz=-216925.81081403
C      -1.19169462      0.88860243     -0.38478303
C      -1.30486828     -0.66399757     -0.44855675
C      -0.02921343     -1.05747723      0.31034966
O       1.10101286     -0.83394782     -0.53854367
C       1.29862017      0.59503052     -0.49806720
C       0.13029601      1.04553006      0.39006914
O       0.07736850     -0.06278515      1.31381763
H      -2.01563816      1.32806674      0.17473790
H      -1.15665118      1.35730314     -1.36758500
H      -1.29909676     -1.05897237     -1.46243168
H      -2.19339141     -1.02973411      0.06525394
H       0.02429610     -2.05492805      0.73560872
H       2.26941532      0.81483178     -0.04957264
H       1.25865923      1.00903144     -1.50726536
H       0.27446666      1.97775319      0.92723734
