18
b3lypvtz=-228519.05981502
C      -3.13160112      0.25931783     -0.20069861
C      -1.74405513      0.21660800      0.42344829
N      -0.89310592     -0.74693824     -0.27556758
C       0.45255771     -0.91301843      0.25527765
C       1.46776392      0.04203295     -0.36499451
O       1.16821002      1.35161880      0.07350801
O       2.79484735     -0.31282649     -0.03341551
H      -3.76299700      0.98877909      0.30869512
H      -3.62832353     -0.71233244     -0.13093579
H      -3.07044873      0.52969885     -1.25547990
H      -1.82733357     -0.01635384      1.49835399
H      -1.27142774      1.19515437      0.35327327
H      -1.35847782     -1.64473348     -0.30178840
H       0.49971618     -0.79190337      1.35136287
H       0.79975058     -1.91982729      0.02225131
H       1.41825687     -0.02673394     -1.45418220
H       1.75353599      1.96079688     -0.38941522
H       2.88370194     -0.25420526      0.92571420
