14
b3lypvtz=-227020.87543657
C       2.45344630     -0.84399458     -0.01608933
C       1.17374707     -0.06355627      0.00268169
O       1.31369609      1.27978854      0.05045083
C      -0.03641942     -0.64896754     -0.02405022
C      -1.33886143      0.04536655     -0.01380734
N      -2.42243143     -0.81187774      0.00331445
O      -1.49451826      1.25320151     -0.05164230
H       3.05488657     -0.56649188     -0.88689499
H       2.27114476     -1.91492048     -0.05398910
H       3.04609609     -0.62689207      0.87763752
H       2.24907590      1.50688219      0.06799862
H      -0.04399770     -1.72934943     -0.06463097
H      -3.31801570     -0.38274113      0.16607953
H      -2.31451383     -1.76902567      0.28901561
