15
b3lypvtz=-193622.56065837
O       2.43008965     -0.62424046     -0.80795973
C       1.78741289     -0.21564267      0.40692398
C       0.32965953      0.05028356      0.23240410
C      -0.32363405      1.21384214      0.42161094
C      -1.74453422      1.04049095      0.11659002
C      -1.96218100     -0.22936518     -0.26509332
C      -0.66600889     -0.98491923     -0.22447052
H       2.28860240      0.06961991     -1.46041152
H       2.27725124      0.66798426      0.83080830
H       1.95442722     -1.04526731      1.09757097
H       0.12530291      2.14070466      0.75256070
H      -2.48708599      1.82212520      0.18845673
H      -2.90553214     -0.66272465     -0.56086643
H      -0.70829875     -1.83351664      0.46876476
H      -0.39547081     -1.40937454     -1.19708898
