16
b3lypvtz=-202020.74352279
N       3.34781524      0.15952932      0.02477614
N       2.11348464      0.02258694     -0.58121570
C       1.09342643     -0.12928026      0.16351542
C      -0.26472142     -0.18166902     -0.39209916
C      -1.33779545     -1.03835945      0.26628809
C      -1.44171013      0.44242158      0.35795227
N      -2.51934453      1.13580221     -0.29737451
H       3.42174774     -0.30520431      0.92753646
H       4.06624593     -0.16638603     -0.60431282
H       1.19366686     -0.20997746      1.25474028
H      -0.30402699     -0.10931934     -1.47131919
H      -1.07281225     -1.59685393      1.15425107
H      -2.02394786     -1.55611097     -0.39188495
H      -1.19654278      0.87711854      1.32024386
H      -2.21566250      2.04167058     -0.63584657
H      -2.85992292      0.61393162     -1.09535069
