12
b3lypvtz=-223834.17903392
C      -2.10456842     -0.17181070     -0.98886326
N      -1.60977050     -0.74233260      0.02958022
C      -0.26207084     -0.45693153      0.36975806
O       0.10903252     -1.13708681      1.46823263
N       0.48762504      0.33644035     -0.28153957
C       1.80838117      0.56180186      0.12361827
N       2.60512491      1.34000628     -0.48249759
H      -3.13560030     -0.38891353     -1.25099072
H      -1.53346360      0.52353969     -1.60473484
H      -0.65778043     -1.65674728      1.74822813
H       2.16573045      0.03715267      1.00891570
H       2.12736001      1.75478160     -1.28620704
