14
b3lypvtz=-226979.19200908
C      -2.57417741      0.80652579      0.29313351
O      -2.20779555     -0.36492968     -0.42348410
C      -0.91896925     -0.75806128     -0.34709302
C       0.06670972     -0.18861203      0.34545501
O       1.30468445     -0.82120613      0.38799883
C       2.40564263     -0.07827816      0.06240865
N       2.47961433      1.08158311     -0.41706271
H      -2.39869393      0.68003108      1.36520528
H      -2.01390736      1.67512929     -0.06471604
H      -3.63458105      0.95731614      0.11158166
H      -0.73752498     -1.65427147     -0.92506635
H      -0.02613379      0.69903716      0.95474325
H       3.29592966     -0.65798478      0.28548753
H       1.56206053      1.48556494     -0.60304249
