17
b3lypvtz=-215280.42379483
C       3.16392081     -0.18310823      0.09134758
N       1.83926552      0.35245053     -0.19910410
C       0.75419542     -0.57379916      0.07128957
C      -0.59984279      0.10561380      0.03611278
N      -0.79217660      1.35558162      0.09389573
C      -1.81433576     -0.78770877     -0.06326068
O      -3.01381547     -0.06705100      0.01565740
H       3.91941097      0.55296428     -0.18228516
H       3.39306658     -1.12288011     -0.43247538
H       3.25391678     -0.36846776      1.16312993
H       1.79480096      0.65577411     -1.16462018
H       0.73738187     -1.44694297     -0.60150077
H       0.89534566     -0.98109124      1.07846213
H       0.09528071      1.85422658      0.16868236
H      -1.75697443     -1.34088411     -1.01202944
H      -1.76832974     -1.54112887      0.73536700
H      -2.74582349      0.86670430      0.06226122
