15
b3lypvtz=-240202.63126211
O       2.83195624     -0.53240898      0.34440756
C       1.41724294     -0.64553628      0.45258457
C       0.71962534      0.68150137      0.31366780
O       0.45507772      1.18001468     -1.00565063
C      -0.65666066      0.85482730     -0.16616637
C      -1.55230309     -0.27578860     -0.61641265
O      -2.34091462     -0.78264241      0.45636712
H       3.16438976     -0.04481266      1.10406239
H       1.11519600     -1.31838270     -0.34673793
H       1.12559422     -1.10114483      1.40724754
H       1.09682746      1.44754505      0.99178915
H      -1.19858711      1.72515366      0.20492867
H      -2.18093288      0.07089595     -1.44437868
H      -0.96051995     -1.10932178     -0.98764046
H      -3.03599137     -0.14999975      0.65983193
