16
b3lypvtz=-202048.78181953
N      -0.71269479      1.86009368     -0.17067934
C      -0.63566550      0.62788916      0.16172923
C       0.58801204     -0.15302959      0.39426231
C       1.76881465      0.11201092     -0.19127349
N       2.92918643     -0.60547418     -0.05380876
C      -1.93629716     -0.12212190      0.37277040
N      -2.05694049     -1.26546931     -0.54242581
H       0.21457651      2.28642439     -0.21407696
H       0.50591706     -1.02100593      1.04246738
H       1.84327983      0.93078858     -0.89855384
H       3.78868964     -0.17157983     -0.33909381
H       3.01402562     -1.23137096      0.72961260
H      -1.98943149     -0.40323966      1.43811940
H      -2.74900591      0.57319250      0.17364948
H      -2.93096196     -1.74982651     -0.37553146
H      -1.31537149     -1.93611736     -0.37737831
