15
b3lypvtz=-193589.16572114
C      -2.17909822     -0.90352849      0.44898591
C      -1.25606808     -0.60404295     -0.45460709
C       0.00000273      0.15570960     -0.18591655
C       1.25609874     -0.60401060     -0.45458165
C       2.17911312     -0.90348214      0.44903198
C      -0.00002166      1.32653730      0.69610778
O      -0.00000879      1.50341868     -0.72474460
H      -3.06460030     -1.46600416      0.18395831
H      -2.08366181     -0.60286515      1.48490979
H      -1.37663994     -0.93610861     -1.48170403
H       1.37670415     -0.93606452     -1.48167841
H       2.08364350     -0.60282985      1.48495596
H       3.06463509     -1.46593501      0.18402210
H       0.91692437      1.62105699      1.19493014
H      -0.91698592      1.62103390      1.19491036
