16
b3lypvtz=-181108.16648588
C      -1.91102193     -1.33909686      0.25161605
C      -0.80849622     -0.53047335     -0.41005926
C      -1.09146723      0.98578248     -0.55260459
N      -0.24910147      1.24465958      0.64013239
C       0.35554482     -0.11511170      0.55398448
C       1.69011962     -0.17377118     -0.02702685
C       2.79201427     -0.19750795     -0.50506195
H      -1.56719631     -2.34516036      0.50068454
H      -2.25029839     -0.85809513      1.17093719
H      -2.77127498     -1.43719989     -0.41386579
H      -0.46554397     -1.01588715     -1.32113211
H      -0.69930593      1.40331177     -1.48446672
H      -2.13091638      1.29933944     -0.43428030
H       0.41469965      2.00329091      0.55083525
H       0.35843025     -0.63584815      1.51575669
H       3.76680420     -0.22309046     -0.92397002
