21
b3lypvtz=-193505.54434831
C       3.08664437     -0.32017215      0.24212414
C       1.71234567     -0.77036525     -0.25106042
C       0.54751459      0.12709792      0.20734776
N       0.63911974      1.52516094     -0.24116456
C      -0.79925717     -0.45957084     -0.22789459
C      -2.01348945      0.22653882      0.39057216
N      -3.25148657     -0.44073794     -0.04063219
H       3.34940837      0.66958493     -0.13614630
H       3.86720415     -1.00835892     -0.08519782
H       3.11973462     -0.27957772      1.33370344
H       1.52400120     -1.79065115      0.09560125
H       1.70909135     -0.81385237     -1.34615001
H       0.56296658      0.15851007      1.30322026
H       1.46544678      1.97424132      0.13378875
H       0.71941402      1.56206510     -1.25277229
H      -0.86969245     -0.40255180     -1.32204056
H      -0.83491125     -1.52155181      0.02494771
H      -1.97976196      1.29581386      0.15832041
H      -1.95481206      0.13675041      1.47900869
H      -3.39339831     -0.29507209     -1.03462819
H      -4.05104623     -0.02164333      0.42018236
