16
b3lypvtz=-204412.53335112
C      -1.45001740      0.27124954      0.63647301
C      -0.96228108      0.21228730     -0.81121514
C       0.55322524      0.12940040     -0.86567549
C      -0.23155659     -1.06347303     -0.43310969
N      -0.57822892     -0.90243116      1.00349940
C       1.49573211      0.86049089      0.08541235
O       2.19185475     -0.01231482      0.96150436
H      -1.24289497      1.17517583      1.21281235
H      -2.51126609      0.03422464      0.71402562
H      -1.55893550      0.45467624     -1.67805435
H       0.91106763      0.03192974     -1.88442898
H      -0.17651857     -2.03403211     -0.90543191
H      -1.14109256     -1.67352053      1.33911847
H       0.94720794      1.62199479      0.65246405
H       2.25469243      1.38670854     -0.49430773
H       1.49901161     -0.49236625      1.43937022
