12
b3lypvtz=-226237.86287133
N      -1.77333326      1.77981826     -1.15368389
C      -1.31185882      0.82395767     -0.70968576
C      -0.76070867     -0.42144767     -0.13445326
O      -1.00342730     -0.49653461      1.26144223
C       0.75130625     -0.52808258     -0.33202069
C       1.53550486      0.55268623      0.38876329
O       2.63802604      0.37597813      0.83158882
H      -1.24329144     -1.25059070     -0.66357669
H      -1.94856948     -0.42281831      1.43280382
H       0.98173885     -0.45239217     -1.39920628
H       1.09363142     -1.50153691      0.01687159
H       1.04098155      1.54116266      0.46105682
