16
b3lypvtz=-204462.80629772
C       2.98362774     -0.38130622     -0.17750956
C       1.67975347     -0.46664515      0.08525516
N       0.83006105      0.62405330     -0.06126095
C      -0.41870413      0.56200341      0.17690532
O      -1.15799109      1.68148051     -0.01747323
C      -1.27927385     -0.58322178      0.63487083
C      -2.11102484     -1.17999218     -0.51081296
H       3.62902935     -1.23936392     -0.05819020
H       3.42129252      0.54792226     -0.51584976
H       1.26705906     -1.41681318      0.42013986
H      -0.54191570      2.35552214     -0.34213515
H      -0.66013171     -1.35325110      1.08986527
H      -1.94643910     -0.20297919      1.41017925
H      -1.46840676     -1.58355887     -1.29385158
H      -2.75569759     -0.42362216     -0.95662290
H      -2.74021944     -1.98927186     -0.13947240
