15
b3lypvtz=-191164.49784141
C       1.83853476     -0.86189127      0.18018153
C       0.91740478      0.12497908      0.77817674
N       0.39863674     -1.16189823      0.12024687
C      -0.14846417     -0.31582391     -0.95956644
C       0.26711608      0.99504413     -0.25569999
C      -1.18182137      0.61987352     -0.40783086
N      -2.05141680      0.35723359      0.71229847
H       2.35870863     -0.62203466     -0.74082042
H       2.37678391     -1.51359923      0.85694072
H       0.85256204      0.26326901      1.85058403
H      -0.06803892     -0.62206088     -1.99494236
H       0.67573336      1.91688264     -0.64908704
H      -1.67633343      1.20550279     -1.17521421
H      -2.92463706     -0.03496823      0.37742597
H      -1.63476854     -0.35050835      1.30730698
