19
b3lypvtz=-171828.44625808
C      -3.12494758     -0.47450255     -0.25314822
C      -1.92256185     -0.40990671      0.30481987
C      -0.99254561      0.76649028      0.22714805
C       0.34387635      0.42127979     -0.40309969
C       1.56728159      1.24918998     -0.10224405
C       1.46394569     -0.16226613      0.41627231
C       2.35040419     -1.25194311     -0.13736197
H      -3.74650295     -1.35611133     -0.16532706
H      -3.53368575      0.35648185     -0.81705086
H      -1.55082978     -1.26853985      0.85800424
H      -0.80971649      1.15015249      1.23768177
H      -1.47110788      1.57608455     -0.33139218
H       0.26806358      0.04603411     -1.41800403
H       1.46406252      2.06515899      0.60146524
H       2.26455552      1.44256404     -0.90705327
H       1.26032557     -0.24735211      1.47868170
H       2.51708911     -1.11456180     -1.20769844
H       3.32793893     -1.25512704      0.35065859
H       1.90401584     -2.23912048      0.00336703
