17
b3lypvtz=-191956.5777805
C       0.45677861      0.62047223     -1.66412947
C       0.34374073      0.28741669     -0.17553503
N       1.57045109     -0.36609489      0.26778476
C       2.27570794      0.20924599      1.13880635
C      -0.81844326     -0.65194994      0.08226155
C      -1.59430830     -0.61329770      1.34021223
N      -2.14665517     -0.02953531      0.10419404
H      -0.47893727      1.05476937     -2.01629013
H       1.26145542      1.33452237     -1.84171868
H       0.67054925     -0.28041989     -2.24135438
H       0.15791287      1.21449962      0.38624483
H       3.19578960     -0.26091644      1.48023684
H       2.01573305      1.17830737      1.58410040
H      -0.71685068     -1.61934069     -0.39950102
H      -2.01348056     -1.53982978      1.71354808
H      -1.34001983      0.10976007      2.10596443
H      -2.83942348     -0.64750907     -0.30312479
