14
b3lypvtz=-231998.60509999
C      -2.20041048      0.02248760      0.16625250
C      -0.80557131     -0.42536245     -0.10952995
C       0.28599688      0.34817451      0.00683868
C       1.65212366     -0.03261961     -0.24662713
C       2.70690371      0.77619922     -0.11645685
F       0.09856736      1.63914339      0.40816708
O      -0.63483523     -1.72789883     -0.51226601
H      -2.64989777     -0.58426250      0.95898482
H      -2.82305688     -0.08548148     -0.72777290
H      -2.22502306      1.06292815      0.47648165
H       1.78349199     -1.05914189     -0.56345253
H       2.59804117      1.80456050      0.19832337
H       3.70606174      0.42097279     -0.32420173
H      -1.49239178     -2.15969939     -0.55199286
