19
b3lypvtz=-195134.65613747
C      -1.88624883      1.23652125      0.02048243
C      -1.04197433      0.00502852     -0.32093117
C      -1.78552051     -1.29671808     -0.01052802
C       0.28628841      0.05140572      0.41669351
C       1.35019686      1.08212636     -0.01616791
C       2.26584010     -0.13885393     -0.19157990
O       1.17178027     -1.04907478      0.06395522
H      -1.36820799      2.16602718     -0.22352892
H      -2.82629226      1.22607785     -0.53311245
H      -2.13124888      1.25975061      1.08546871
H      -0.81332450      0.02253114     -1.39233248
H      -2.05279234     -1.34919753      1.04836226
H      -2.70826316     -1.36549775     -0.58947266
H      -1.16792001     -2.16285669     -0.24601193
H       0.10489573      0.05082264      1.49959348
H       1.65210757      1.81356265      0.72998655
H       1.10740914      1.59514480     -0.94582805
H       3.05223652     -0.23460972      0.56260513
H       2.69995221     -0.29296323     -1.18137780
