18
b3lypvtz=-205190.1226971
C       3.05585590     -0.08752036      0.17907765
O       1.77023593     -0.32628359     -0.34942762
C       0.78842364      0.56133269      0.15401826
C      -0.55595746      0.16774698     -0.40719020
C      -1.80000860      0.98897041      0.00552611
C      -2.51608970     -0.37292164      0.15310862
N      -1.18682202     -1.02534276      0.20798964
H       3.73243567     -0.81561208     -0.26552397
H       3.41135148      0.92250074     -0.06412808
H       3.07200439     -0.20598508      1.26983180
H       0.75395449      0.51261418      1.25044749
H       1.02569239      1.59669151     -0.13738476
H      -0.47260430      0.09632543     -1.49891496
H      -2.19782593      1.69295307     -0.72133069
H      -1.66425776      1.49212302      0.96250767
H      -3.13442212     -0.52761039      1.03878225
H      -3.10573888     -0.62273253     -0.73641103
H      -1.08891412     -1.89027959     -0.30824817
