12
b3lypvtz=-226225.44083812
C       1.89670795     -0.56353008      0.14539265
N       1.10624371      0.38096947     -0.12942085
C      -0.30765709      0.11699159     -0.12370308
C      -1.10688453      1.41075268     -0.04461839
O      -2.30785977      1.43180984      0.01460031
C      -0.77834593     -0.68741701     -1.35909692
O      -0.05287864     -1.36112506     -2.03016182
H       1.57533794     -1.56961286      0.43204168
H       2.96754061     -0.37985012      0.10639769
H      -0.63926015     -0.50729987      0.72216561
H      -0.49000645      2.32792113     -0.06775323
H      -1.86303764     -0.59950970     -1.54774364
