14
b3lypvtz=-201287.02271152
C      -0.70046137     -0.48862907     -0.02826462
C      -2.11629506      0.01607921      0.14390860
N      -2.50805621      1.21677438      0.14233872
N       0.27597410      0.59058342      0.02583446
C       1.60336170      0.25787661     -0.46186567
C       2.28764226     -0.82023602      0.28356826
N       2.77897050     -1.65941693      0.89897972
H      -0.51835942     -1.28499970      0.70764672
H      -0.63250611     -0.97054696     -1.01005179
H      -2.86269257     -0.76987108      0.27985526
H      -1.71172993      1.84144732     -0.01250648
H       0.33416384      0.96401654      0.96590961
H       1.53761403     -0.04165015     -1.50976909
H       2.23237424      1.14857245     -0.42558371
