16
b3lypvtz=-204470.32923897
C      -2.89991459      0.18408898      0.08432756
C      -1.54320796     -0.23719322      0.55532413
C      -0.38753753      0.20792540      0.07301044
C       0.95949563     -0.21282637      0.58053531
N       1.76282099     -0.84692961     -0.46157844
C       3.01014529     -0.43681575     -0.80598223
O       3.62266715      0.47388484     -0.28900031
H      -3.47197130      0.64164175      0.89617104
H      -3.48179586     -0.67521689     -0.26021042
H      -2.83606824      0.90314057     -0.73259630
H      -1.52131369     -0.95997600      1.36809055
H      -0.38343551      0.92890854     -0.74024054
H       0.84714446     -0.88884357      1.43261265
H       1.54054460      0.64684299      0.91604425
H       1.35511016     -1.60543321     -0.98311423
H       3.42721640     -1.03889844     -1.63329346
