15
b3lypvtz=-214527.04923623
C      -1.41617155      1.52723980     -0.18455008
C      -1.15138869      0.23136126      0.00713292
N      -2.12793926     -0.76234052      0.15691717
C       0.24159907     -0.30722476     -0.04543728
N       0.57304490     -1.51191532     -0.27407265
O       1.16604792      0.64453000      0.18409776
C       2.53409199      0.23673934      0.08179287
H      -2.43024299      1.90427385     -0.15613438
H      -0.62221416      2.22304240     -0.39786991
H      -1.93251647     -1.42534829      0.89420918
H      -3.06513642     -0.39795696      0.23919132
H      -0.25110014     -2.07112660     -0.47295096
H       3.11906428      1.13300237      0.27021900
H       2.76248763     -0.53269779      0.81870624
H       2.74511290     -0.16062477     -0.91071321
