12
b3lypvtz=-226265.34070798
O       1.35275701      1.85328224     -0.55920676
C       0.56532830      0.96920833     -0.26468050
N      -0.76886488      1.04333246     -0.01583360
C      -1.34530427     -0.25345310      0.30320802
C      -0.16088420     -1.18013693      0.21940664
C       0.92065295     -0.46814920     -0.10525433
O       2.19573826     -0.83438094     -0.29617113
H      -1.28385340      1.90520537     -0.05232365
H      -1.79525078     -0.25129698      1.30165016
H      -2.12971639     -0.52413425     -0.41148113
H      -0.22677492     -2.24039562      0.40103053
H       2.67617231     -0.01908138     -0.52034425
