14
b3lypvtz=-203699.53416396
C      -3.49423336      0.07918427     -0.00008704
C      -2.04843890      0.43538594      0.00027924
C      -1.03114847     -0.43745006     -0.00014686
C       0.34318028     -0.00339601      0.00021989
N       1.31777437     -0.84280522     -0.00008233
C       2.61911204     -0.27853417     -0.00008146
O       2.90296949      0.89453991     -0.00228396
H      -3.99504884      0.50424502     -0.87470518
H      -3.99524121      0.50322855      0.87491396
H      -3.64920248     -0.99890742     -0.00073225
H      -1.81280143      1.49647029      0.00093922
H      -1.20663031     -1.50733555     -0.00079319
H       0.53331431      1.07434405      0.00080353
H       3.39419451     -1.05879860      0.00207144
