17
b3lypvtz=-194360.61887161
C      -2.10517715     -0.20044907     -0.24491794
C      -0.66523208      0.07306380      0.07172890
C      -0.04051152      1.43113650     -0.00857264
C       0.51663473      0.33305687     -0.87366182
C       1.39281792     -0.60380946     -0.04405948
C       0.22100515     -0.82605730      0.94713346
O       2.56008484     -0.08115755      0.57303388
H      -2.25262339     -1.23373369     -0.56870646
H      -2.73816606     -0.03532190      0.63161509
H      -2.46679006      0.45499943     -1.03945071
H      -0.61848547      2.17645421     -0.54021542
H       0.55060148      1.82154802      0.81179466
H       0.52029328      0.40388835     -1.95369821
H       1.62972098     -1.51895870     -0.59472877
H      -0.10539146     -1.86490502      0.98258082
H       0.40428122     -0.47330781      1.96301443
H       3.19693759      0.14355329     -0.11288979
