18
b3lypvtz=-202813.23928731
C      -1.46808996     -1.57912809     -0.10478808
C      -1.02461690     -0.15015830     -0.02264123
N      -2.05728725      0.78162535      0.28840654
C       0.21155252      0.32255477     -0.26148474
N       0.45571282      1.71871894     -0.14483259
C       1.44322011     -0.50370921     -0.51132525
N       2.40984055     -0.57653170      0.60145697
H      -1.80007641     -1.95054951      0.87119977
H      -0.68996701     -2.24447261     -0.46824844
H      -2.32080335     -1.67321423     -0.78622552
H      -1.79739784      1.41923368      1.03192693
H      -2.92716528      0.33150409      0.53181307
H      -0.35750896      2.26144966     -0.41272109
H       1.24436986      2.01308134     -0.70626521
H       1.98138203     -0.09335553     -1.37366076
H       1.17502982     -1.52245839     -0.78087002
H       1.94806417     -0.97431278      1.41277260
H       2.68076708      0.36109253      0.87751404
