19
b3lypvtz=-195134.20360901
C       2.69793124      0.20133923     -0.07288145
C       1.26129174      0.71863338     -0.16406926
C       0.27129882     -0.18027855      0.56610627
C      -0.10816998     -1.49256840     -0.14900715
O      -1.45669277     -1.03094944     -0.38519348
C      -1.24601201      0.13812657      0.45150358
C      -1.73877530      1.41157326     -0.19586288
H       3.38804488      0.85183092     -0.61202126
H       2.78886475     -0.79991120     -0.49954166
H       3.03227560      0.14870232      0.96562226
H       0.97320976      0.80729382     -1.21483455
H       1.21291789      1.72804592      0.25477929
H       0.60002208     -0.31741726      1.59763288
H       0.41589353     -1.70279989     -1.08535622
H      -0.09166432     -2.38847816      0.47869495
H      -1.75622367     -0.00153596      1.41203384
H      -1.56067923      2.27022040      0.45547469
H      -2.81401205      1.33879527     -0.36823626
H      -1.25462098      1.59180778     -1.15497258
