15
b3lypvtz=-237802.77594157
C      -1.66290894     -0.83762896      0.35174944
N      -0.21946057     -0.82084768      0.49943381
C       0.61576931      0.02533073     -0.16388381
N       1.89886248     -0.10060454     -0.21331057
O       2.29276576     -1.28828990      0.47880389
C       0.06722675      1.24153427     -0.86177175
O      -0.58577086      2.14911677      0.02557958
H      -2.08882476     -1.42667161      1.16280280
H      -1.99426771     -1.27790092     -0.59569280
H      -2.05966421      0.17276916      0.42735394
H       0.22763803     -1.65028480      0.85309940
H       3.24345066     -1.29503747      0.34183847
H       0.89516769      1.71473644     -1.39174305
H      -0.68921835      0.95574477     -1.59400598
H       0.05923471      2.43803374      0.67974658
