17
b3lypvtz=-217694.19689899
O       2.18279682     -0.65137402      0.00214334
C       0.84827896     -0.41512783     -0.44218168
C      -0.24525657     -1.19548316      0.29103158
C      -1.52336033     -0.38552952     -0.00351257
C      -1.04315813      1.07318706     -0.26520669
C       0.48563608      1.04986372     -0.16440835
O       0.85987486      1.40358511      1.16362859
H       2.34197024     -1.59854139      0.03656079
H       0.77776378     -0.59521922     -1.52295052
H      -0.31588704     -2.23618695     -0.02986622
H      -0.01863924     -1.18122079      1.35818789
H      -2.23446686     -0.44400992      0.81910304
H      -2.02967935     -0.78051086     -0.88549394
H      -1.43421233      1.78013183      0.46448574
H      -1.35698457      1.41672007     -1.25159058
H       0.96536707      1.72608662     -0.87986968
H       1.73995660      1.03382924      1.30973923
