15
b3lypvtz=-216917.7128733
C       2.10681986      0.80261823     -0.41763766
C       1.20613811     -0.39062413     -0.24453737
O       0.72878185     -0.69530546      1.06100442
C      -0.25021449     -0.36579367      0.05050216
C      -1.14780737     -1.48130125     -0.41346519
C      -0.90739793      0.95972775      0.28568492
O      -1.98102674      1.26218630     -0.16997217
H       1.78354968      1.65742845      0.17152772
H       2.14474382      1.09681726     -1.46827213
H       3.12060822      0.54240475     -0.10790785
H       1.52629872     -1.27170518     -0.79869976
H      -1.64782716     -1.20239052     -1.34061710
H      -0.57106126     -2.39060763     -0.57394649
H      -1.91948413     -1.68326191      0.33029422
H      -0.33786420      1.64860299      0.93720929
