18
b3lypvtz=-181882.54499139
C      -2.90015845     -0.09722593      0.34357646
N      -1.49323830     -0.43950137      0.19150315
C      -0.74504633      0.50534820     -0.62929297
C       0.73167287      0.13023975     -0.71969501
C       1.44596642      0.17866329      0.64302369
C       2.84354465     -0.22920506      0.57197523
C       3.99199588     -0.56860241      0.49145711
H      -3.43466604      0.03827430     -0.61015128
H      -2.99068834      0.83421009      0.90638576
H      -3.40842635     -0.87657539      0.91174731
H      -1.40929420     -1.36829302     -0.20536611
H      -0.84413010      1.49462853     -0.17024461
H      -1.15672075      0.59654391     -1.64833463
H       1.23166520      0.80566228     -1.41660743
H       0.83088280     -0.87424975     -1.14119422
H       0.90943484     -0.45774093      1.34936217
H       1.38919422      1.19551255      1.04418388
H       5.00801198     -0.86768906      0.42856066
