12
b3lypvtz=-200499.01018216502
C      -1.95902298     -1.09607990      0.25467238
C      -1.44897646      0.07993589     -0.11485903
C      -0.03432343      0.38649448     -0.17872361
N       0.35040464      1.58840886     -0.56280480
N       0.86557607      2.55192659     -0.86556266
N       0.95400657     -0.52304828      0.14495735
C       2.20364031     -0.28960741      0.10096152
H      -3.02822853     -1.24732595      0.27686141
H      -1.32351359     -1.92228670      0.53937869
H      -2.10944418      0.89275573     -0.39570137
H       2.88378155     -1.08628213      0.38006763
H       2.64610004      0.66510883     -0.20054464
