14
b3lypvtz=-180380.49570679
C       2.06529383      1.27566277      0.21395163
C       1.45196331      0.00001684     -0.39348835
C       2.06534235     -1.27559200      0.21398047
C       0.00119595     -0.00000924     -0.24978409
C      -1.19764047     -0.00002557     -0.11607032
C      -2.55602629     -0.00005089      0.03011172
N      -3.70612958     -0.00005900      0.15441007
H       1.64418772      2.17188591     -0.23966484
H       3.14321878      1.27896198      0.04937299
H       1.88140513      1.31708954      1.28781388
H       1.66306454      0.00000871     -1.46838210
H       1.88145491     -1.31700155      1.28784362
H       3.14326746     -1.27885407      0.04940221
H       1.64427035     -2.17184141     -0.23961588
