13
b3lypvtz=-216178.61963966
C       2.51082596     -0.05389424      0.08726575
C       1.31261830     -0.12259149      0.66577672
C       0.05538189      0.00849915     -0.06219188
O       0.14790819      0.20567388     -1.36844961
C      -1.16564537     -0.06712022      0.56552245
C      -2.37308828      0.06678440     -0.18644584
O      -2.40773913      0.25366069     -1.41169657
H       3.41808334     -0.15633971      0.66613600
H       2.60883623      0.10631429     -0.97747662
H       1.22021339     -0.28334333      1.73241006
H      -0.79158211      0.27281289     -1.70971526
H      -1.21325941     -0.22837048      1.63155802
H      -3.32265300     -0.00208584      0.36730678
