16
b3lypvtz=-204460.412644
C      -2.43247948     -1.08875794      0.09822899
C      -1.32242911     -0.21452030     -0.43130975
C      -1.36298993      1.27847828     -0.26082485
C      -0.36293126      0.46122843      0.51566368
N       1.02308619      0.57210283      0.16875211
C       1.86774993     -0.48465323      0.01578304
O       3.06522841     -0.39433721     -0.14746241
H      -3.26566343     -1.13095766     -0.60600311
H      -2.08664199     -2.11031681      0.26901465
H      -2.82035452     -0.70563923      1.04388669
H      -0.87409554     -0.55304607     -1.35699106
H      -0.98025586      1.89122356     -1.06512443
H      -2.18800844      1.71135373      0.28845236
H      -0.56973824      0.33515357      1.57405956
H       1.46619134      1.47858931      0.22001186
H       1.33697892     -1.45266827      0.04070366
