18
b3lypvtz=-205197.56584425
N      -2.24413373     -0.68673676      0.44697496
C      -1.48357704      0.12319173     -0.51684547
C      -0.01433338      0.23240438     -0.15261787
C       0.73404865     -1.08872355     -0.24718942
O       2.12088977     -1.01085327      0.06264824
C       0.36830634      1.23021820      0.90195559
C       0.70335872      1.49313024     -0.54692821
H      -3.23755696     -0.53809549      0.31848394
H      -2.08595885     -1.67518832      0.29301703
H      -1.56399098     -0.24583217     -1.55095637
H      -1.91466789      1.12572908     -0.51230622
H       0.24684456     -1.83370532      0.39275236
H       0.68368878     -1.45443204     -1.27638007
H       2.21750770     -0.95447683      1.01735300
H       1.19198174      1.00461414      1.56642413
H      -0.42810108      1.79580810      1.36570365
H       0.14595668      2.25697859     -1.07309980
H       1.74106898      1.40457728     -0.83555648
