15
b3lypvtz=-214529.36569372
C      -2.07583514      1.13084804      0.00000104
C      -1.46305693     -0.24863314     -0.00000132
N      -2.10762952     -1.35403014     -0.00000071
N      -0.08773355     -0.31274618     -0.00000484
C       0.82376563      0.73347184     -0.00000235
C       2.14583999      0.55539658      0.00000155
O       2.67662686     -0.71727847      0.00001323
H      -1.77181900      1.69979106      0.88104745
H      -1.77182043      1.69979372     -0.88104414
H      -3.16003996      1.05092232      0.00000177
H      -3.10817703     -1.18673448      0.00000142
H       0.28360495     -1.25119373     -0.00000392
H       0.42985731      1.73581412     -0.00000193
H       2.83066307      1.39022789      0.00000468
H       3.63469273     -0.67012444     -0.00004395
