18
b3lypvtz=-181906.700385
C       2.28675265     -0.15295841      0.72669271
C       1.08734314      0.02467265     -0.17564310
N       1.02144192      0.85899302     -1.13577408
C      -0.06752462     -0.85878780      0.13995207
C      -1.22688513     -1.00375010     -0.81550005
C      -1.45302252     -0.29083058      0.47695522
C      -1.73692907      1.18991347      0.52488350
H       2.00562736     -0.00235467      1.77196350
H       3.08414260      0.54464458      0.47248294
H       2.67541061     -1.17153350      0.64826352
H       1.88029327      1.40372855     -1.20535326
H       0.19950968     -1.73843945      0.71185711
H      -1.16267738     -0.39672307     -1.70811689
H      -1.64258714     -1.99262771     -0.95318988
H      -1.96544047     -0.86394148      1.24154236
H      -1.48380088      1.61113217      1.50075961
H      -2.79981142      1.37318115      0.35149437
H      -1.17174458      1.72539818     -0.23571064
