16
b3lypvtz=-204445.16260756
C       2.07545706     -0.87785595     -0.44327545
C       1.22238880      0.35157142     -0.25385961
N       0.77738084      0.68479644      1.09301774
C      -0.24803551      0.36259540      0.07007641
C      -1.12021567      1.45191504     -0.50562819
C      -0.93376992     -0.93686975      0.33590879
O      -2.01933822     -1.22600789     -0.10383264
H       1.97339697     -1.26989587     -1.45699463
H       3.12630528     -0.62652834     -0.28544212
H       1.81479249     -1.66443418      0.26149528
H       1.51035720      1.18470162     -0.88989599
H       0.79254188      1.68611792      1.25697135
H      -1.91892304      1.71658420      0.18955019
H      -0.53352456      2.34668948     -0.71803335
H      -1.59250279      1.11831012     -1.42930410
H      -0.37393979     -1.63000567      0.99084430
