20
b3lypvtz=-182675.06059775
C      -3.32750617      0.22581594     -0.11766031
C      -2.06262117     -0.48442910      0.34423337
N      -0.87620348      0.10576922     -0.26545453
C       0.34178560     -0.55609985     -0.12561438
C       1.56449445     -0.02066256     -0.00383443
C       1.81926415      1.45881144      0.08997509
C       2.78617005     -0.89757685     -0.00636499
H      -3.42201475      0.17995612     -1.20296114
H      -4.21134552     -0.23068875      0.32983136
H      -3.31695309      1.27829867      0.17611721
H      -2.01185610     -0.47452475      1.44293222
H      -2.09771895     -1.53480935      0.04510929
H      -0.82129683      1.10429618     -0.12552072
H       0.24352251     -1.63569877     -0.17959977
H       2.58424883      1.67133116      0.84226549
H       2.18874118      1.86930846     -0.85645273
H       0.93081486      2.03046438      0.36525049
H       3.38594378     -0.74950765      0.89817397
H       3.44385692     -0.67114441     -0.85349447
H       2.52457574     -1.95469353     -0.06687100
