18
b3lypvtz=-202795.89651932
C      -0.21818491      1.91448679      0.34612474
C      -0.38004330      0.43972652      0.70980402
C       0.85241666     -0.37709280      0.43181414
N       1.84510726      0.08027562     -0.21529774
N       2.89437166     -0.77034042     -0.49126892
C      -1.61417804     -0.16289783      0.00619097
N      -1.85286595     -1.55708373      0.39844538
H      -1.12084341      2.47032686      0.60612144
H       0.62377441      2.35897290      0.87546977
H      -0.03118571      2.03952454     -0.72056144
H      -0.57777782      0.35229623      1.78456866
H       0.85662458     -1.40502108      0.81417591
H       3.74603329     -0.23797885     -0.58595498
H       3.00745847     -1.52621597      0.18115211
H      -1.49692319     -0.02734462     -1.07766090
H      -2.48762477      0.41932546      0.30674230
H      -2.80031095     -1.82827626      0.16673556
H      -1.24564828     -2.18268334     -0.11750102
