15
b3lypvtz=-191206.92712667
C      -1.80462920     -0.04442332      0.14157239
C      -0.32534456      0.07296598     -0.10510402
C       0.44310765     -1.13793303     -0.64201108
N       1.73300829     -1.13974036      0.06983136
C       1.70101410     -0.17941115      0.89667136
N       0.52524621      0.62508683      0.98716141
C       0.32320212      1.39176706     -0.27587681
H      -2.34488345     -0.14879790     -0.80223195
H      -2.02547406     -0.91987009      0.75550861
H      -2.18619912      0.83704270      0.65622878
H      -0.09001910     -2.06760340     -0.42445773
H       0.61615691     -1.11176801     -1.71982538
H       2.52338369      0.05271032      1.56384118
H      -0.26279598      2.29464963     -0.15912149
H       1.17422649      1.47532474     -0.94218664
