15
b3lypvtz=-191212.85864115
C      -2.86152043      0.67416797     -0.13681918
C      -2.22644926     -0.47320531      0.10570204
C      -0.77122074     -0.63487679      0.13034447
N       0.02948112      0.35038479     -0.02347033
C       1.41282292      0.16284038     -0.01923352
C       2.19652540      1.24975267      0.08198725
N       1.91384452     -1.15021292     -0.05478096
H      -3.94144616      0.72798761     -0.14077524
H      -2.30784271      1.58219882     -0.33453964
H      -2.79922304     -1.37346690      0.29941972
H      -0.40870465     -1.64937995      0.31624443
H       3.27482506      1.17530921      0.09104787
H       1.74216273      2.22017893      0.19665937
H       2.91806184     -1.18452943     -0.14800265
H       1.47858739     -1.73243708     -0.75777062
