17
b3lypvtz=-191923.78037661
C       2.07510299      0.05188851      0.31842360
N       0.68470640      0.45951233      0.16331150
C      -0.41311706     -0.39142408      0.78508861
C      -0.23136502     -1.47431290     -0.30501008
C      -0.12855152     -0.09399492     -1.00377214
C      -1.38554750      0.34680564     -0.21161928
N      -1.66350585      1.75114264     -0.12888040
H       2.40186196      0.31886297      1.32512474
H       2.29372471     -1.01218878      0.16476381
H       2.68250513      0.62351610     -0.38549147
H      -0.49956642     -0.51336719      1.86504065
H       0.67226103     -2.07318657     -0.26176064
H      -1.09604281     -2.09350638     -0.54751880
H       0.12497791      0.13694772     -2.03801911
H      -2.29014364     -0.21101205     -0.44933472
H      -2.40248278      1.93961002      0.53685637
H      -0.82481752      2.23470693      0.17279734
