14
b3lypvtz=-229604.50687767
C      -0.41685322      1.97496935      0.36981371
C       0.14353136      0.61471611      0.04076557
C       1.43277482      0.49508161     -0.25465046
F       2.01647673     -0.67543060     -0.57213263
C      -0.77586154     -0.56567119      0.07410053
N      -0.55256691     -1.67786209      0.65650682
N      -2.00671554     -0.34714966     -0.52445042
H       0.36711520      2.73227953      0.37311905
H      -0.89177770      1.96794907      1.35287165
H      -1.18024862      2.28418348     -0.34658248
H       2.13694810      1.31622091     -0.27458664
H       0.35083938     -1.67281375      1.11816350
H      -2.02105288      0.24266999     -1.34066754
H      -2.55899618     -1.18717876     -0.61197065
