16
b3lypvtz=-225327.68935156922
C       2.07231535     -0.62464857      1.47379495
C       0.90138573      0.12906860      0.95946744
N       0.14023029     -0.38773477      0.04500070
O       0.31798817     -1.53768267     -0.48100554
C      -1.05494200      0.37629197     -0.50513711
N      -2.20396056     -0.41132192     -0.13597729
N      -0.92624684      0.59657967     -1.91977911
H       2.64606696     -0.02199658      2.17514858
H       2.71656419     -0.93864114      0.64866636
H       1.75056526     -1.54367222      1.97227399
H       0.62387808      1.10552819      1.32560739
H      -1.07277707      1.34087345      0.00244163
H      -2.01712089     -1.37890926     -0.38289809
H      -3.00264885     -0.09819035     -0.67384082
H      -0.71667277     -0.28730599     -2.37431561
H      -0.17462507      1.24442463     -2.12944748
