14
b3lypvtz=-222132.29827804348
C      -1.68938463     -0.83766588     -0.03132407
C      -0.21943901     -1.12336602      0.04620599
N       0.63636900     -0.15398935     -0.01508984
N       1.96150014     -0.24096411      0.06489839
N       2.40978639      1.02762349     -0.07206906
N       3.65995091      1.11535178     -0.01688856
N      -1.94014259      0.52890113     -0.49096461
H      -2.13176690     -0.94983033      0.96506710
H      -2.16355179     -1.60876784     -0.65213563
H       0.16038528     -2.12466869      0.18413328
H       0.25147360      0.79253720     -0.14274473
H       3.85605456      2.11285863     -0.13117825
H      -2.81675927      0.88323951     -0.13543412
H      -1.97447568      0.57874050     -1.50139332
