14
b3lypvtz=-226987.98019141
C       0.09475353      1.46210738      0.63339456
C      -0.53795961      0.39124752      0.14568066
C      -2.01263823      0.31706605      0.11240212
N      -2.71909137     -0.63760303     -0.33113023
O       0.04670863     -0.73364204     -0.36484969
C       1.43550568     -0.71202917     -0.65584066
O       2.24790083     -0.75052055      0.47907053
H       1.16692453      1.52774392      0.72424620
H      -0.49532022      2.29752365      0.97995878
H      -2.51614812      1.19144614      0.52544365
H      -2.11466122     -1.38304428     -0.68378674
H       1.68784712      0.20798206     -1.18496030
H       1.58714667     -1.57968013     -1.29982606
H       2.12923178     -1.59849753      0.92029717
