17
b3lypvtz=-194358.66035179
C       1.71917079     -1.00000040      0.08764481
C       0.43909693     -0.21652069      0.06452524
C      -0.73918633     -0.45634290      1.01851450
C      -1.74064049     -0.18456623     -0.14107481
C      -0.56646026      0.06436769     -1.08856688
C       0.31402387      1.14006922     -0.55958626
O      -0.25709715      2.25356831      0.08353711
H       2.34555868     -0.76734011     -0.77567639
H       1.52749802     -2.07594488      0.07876932
H       2.30091678     -0.77812954      0.98774399
H      -0.79764855      0.20789972      1.88217210
H      -0.78033786     -1.48815805      1.36615651
H      -2.31125193     -1.07225751     -0.40795945
H      -2.42364104      0.65346914     -0.00782164
H      -0.52468255     -0.23744774     -2.12710196
H       1.13996599      1.39395425     -1.22016887
H       0.35461509      2.56337971      0.75899269
