14
b3lypvtz=-203605.26317097
N       1.13117232      0.16111521      0.02914904
C       0.54337020     -0.56890556      0.85768659
C       0.93244255     -1.79117011      1.82037356
C      -0.08791924     -1.07270734      2.74851740
O      -1.36521081     -1.21639034      3.48598637
C      -1.86783925     -0.11171782      2.63103005
C      -0.82103735     -0.56803479      1.56522861
H       2.08110030     -0.16353313     -0.15427802
H       0.58870056     -2.73480970      1.39989528
H       1.96973361     -1.86553960      2.14296945
H       0.46189029     -0.27736913      3.26418718
H      -1.67025653      0.85426915      3.09836067
H      -2.92126164     -0.23808592      2.39337334
H      -1.29768499     -1.45922090      1.14042047
