18
b3lypvtz=-181885.53653613
C       2.42490026      0.79858877     -0.45755931
C       2.12653893     -0.30104401      0.22104059
C       0.77799950     -0.96504956      0.26761581
N      -0.29760361     -0.16505758     -0.26996154
C      -0.88624591      0.90635361      0.56336265
C      -2.27260141      0.54670485     -0.01274712
C      -1.62463261     -0.79108447     -0.43142362
H       3.42538991      1.20985093     -0.44712229
H       1.67876472      1.30988877     -1.05073582
H       2.89931527     -0.79913857      0.79926290
H       0.82599902     -1.89697833     -0.30845505
H       0.57065260     -1.27219232      1.31100589
H      -0.49306756      1.90692177      0.38259347
H      -0.81597139      0.68881795      1.63914025
H      -2.54452055      1.16494859     -0.86548645
H      -3.10535370      0.49951267      0.68403347
H      -1.81631278     -1.58526362      0.30482733
H      -1.83166569     -1.17873844     -1.43039016
