15
b3lypvtz=-214520.67616843
N      -2.81470471      0.57705117     -0.18221611
C      -1.92898307     -0.16259262      0.33706254
C      -0.72795532     -0.78449557     -0.32332498
C       0.61489646     -0.47009750      0.37488713
N       1.65049307     -1.37261159     -0.10055595
C       0.94696459      1.01185793      0.23966040
O       1.95975559      1.42890280     -0.26010431
H      -2.61885641      0.74535906     -1.17220960
H      -2.04892041     -0.40341249      1.39779651
H      -0.83475312     -1.87233856     -0.29082812
H      -0.68461006     -0.49097685     -1.37616164
H       0.47266387     -0.64810737      1.44933633
H       2.52798049     -1.15762611      0.36074770
H       1.82307309     -1.20211885     -1.08649909
H       0.18455393      1.70965155      0.64299921
