9
b3lypvtz=-233048.9495776
C      -0.80772451     -0.66318783     -0.09177779
C      -0.79207513      0.68639945     -0.06557657
N       0.24520136      1.44510084      0.44393348
N       1.42896604      1.16431541      0.40104274
O       1.72413746     -0.01004678     -0.47174394
N       1.40143776     -1.21022542      0.35491633
N       0.21146066     -1.46498356      0.38734630
H      -1.71990008     -1.19714006     -0.31822701
H      -1.69150355      1.24976793     -0.27074569
