16
b3lypvtz=-204460.85094055
C       2.09060726     -0.84807849     -0.34222623
C       1.01205504      0.23024936     -0.38421529
C       1.34993102      1.42095715      0.53725979
C      -0.35248806     -0.30943874     -0.00216267
O      -0.52034187     -1.35185721      0.58977980
C      -1.56280406      0.53594399     -0.38025470
N      -2.74820445      0.20864611     -0.09207775
H       3.05320291     -0.43315409     -0.64350896
H       2.18994718     -1.25550756      0.66358634
H       1.84997973     -1.67615734     -1.00886244
H       0.92039391      0.62035862     -1.40489910
H       2.29354889      1.87211336      0.22980655
H       1.45435238      1.08448766      1.56984398
H       0.58437024      2.19748697      0.51036927
H      -1.38523863      1.45626694     -0.93755827
H      -2.72638047     -0.67913175      0.42496368
