19
b3lypvtz=-218449.74426562
C      -2.09571214     -0.92728285      0.23402597
C      -1.37078313      0.40689099      0.42329060
C      -0.17876071      0.66244846     -0.50260423
O       0.22894127      2.03432319     -0.42286979
C       1.06499973     -0.22751277     -0.31195156
C       1.61496760     -0.26244981      1.10961024
O       0.72312229     -1.53974821     -0.77359376
H      -1.44871319     -1.77519456      0.44615850
H      -2.96577504     -0.98011919      0.89062367
H      -2.44724657     -1.03603447     -0.79361109
H      -1.04683129      0.50674324      1.46530925
H      -2.07302033      1.22498449      0.24333568
H      -0.50117065      0.51862188     -1.53647976
H       0.19780943      2.30877623      0.49887336
H       1.82691227      0.20520496     -0.97007150
H       0.90930879     -0.72686198      1.79874168
H       1.84760267      0.74347916      1.46448785
H       2.54346319     -0.83693593      1.14255320
H       1.51718482     -2.08206282     -0.76689833
