21
b3lypvtz=-193500.30338918
C      -2.59814799     -0.09167419     -0.05873613
C      -1.27571362     -0.85539083     -0.04620454
C      -0.08670714     -0.00872624      0.43336897
C       1.16307335     -0.87587123      0.68527832
N       1.65508662     -1.46375143     -0.56794147
N       0.15818514      1.08516406     -0.50942538
C       0.87828990      2.22631142      0.03805152
H      -2.51475330      0.79859801     -0.68076241
H      -3.40987219     -0.70987075     -0.44610971
H      -2.87661149      0.22694635      0.94890196
H      -1.06090355     -1.22210104     -1.05464994
H      -1.36406375     -1.73754691      0.59648543
H      -0.36367626      0.44488133      1.39159917
H       0.93393655     -1.62153390      1.45923257
H       1.95750733     -0.24318930      1.08524735
H       1.10473616     -2.27212267     -0.83020233
H       2.60957123     -1.78283041     -0.46512197
H       0.67167894      0.69998838     -1.29518080
H       0.26697024      2.71387329      0.80079415
H       1.85248233      1.99018862      0.49379184
H       1.05437049      2.95432344     -0.75483559
