18
b3lypvtz=-181901.587237
C       1.40717068      0.65187688      0.46095879
C       1.46717842     -0.73763911     -0.17883824
N       0.22226281     -1.49252549     -0.05348323
C      -0.98894481     -0.77585740     -0.37731231
C      -1.70380619      0.04296853      0.67707528
C      -0.97392632      0.73392761     -0.44223011
C       0.32336777      1.49279392     -0.22513396
H       2.37340330      1.15584864      0.37543270
H       1.20035408      0.54811173      1.53069454
H       2.26568375     -1.33687750      0.26145962
H       1.70637213     -0.63002466     -1.24289564
H       0.15618228     -1.91987263      0.85984225
H      -1.62478831     -1.28259787     -1.09597420
H      -1.26105277      0.06014416      1.66479752
H      -2.78542435      0.06355911      0.67221859
H      -1.61108727      1.16726239     -1.20352344
H       0.70105216      1.79943888     -1.20593903
H       0.13379563      2.41326582      0.33374186
