15
b3lypvtz=-216914.94218051
O       2.09460971      0.33299227     -0.42049777
C       1.04377747      0.19665640      0.53781112
C       0.24764585     -1.12063666      0.41062430
C      -0.94637095     -0.80864389     -0.52414726
C      -1.17547391      0.67413545     -0.33256489
O      -1.21589183      1.06584787      1.04909437
C      -0.00190584      1.27401430      0.31612343
H       1.71357886      0.30517301     -1.30485474
H       1.53493072      0.28208194      1.50652080
H       0.88797086     -1.91872813      0.03811172
H      -0.12002804     -1.41722117      1.39145403
H      -1.82965050     -1.40096853     -0.28208152
H      -0.70669019     -1.00227603     -1.57394871
H      -1.83194004      1.23360058     -0.98892314
H       0.30553784      2.30407258      0.17767826
