18
b3lypvtz=-181908.55909316
C      -2.88389449     -0.00066275      0.80112778
C      -2.37894721      0.00047248     -0.43075696
C      -0.94149691      0.00064726     -0.74894072
N      -0.03057449     -0.00005558      0.13133620
C       1.36087534      0.00015263     -0.29536606
C       2.04246362      1.26412976      0.23483812
C       2.04226476     -1.26469632      0.23301485
H      -3.95199180     -0.00072931      0.97071460
H      -2.23382828     -0.00154356      1.66602826
H      -3.04587290      0.00133028     -1.28608321
H      -0.69394891      0.00141620     -1.82023977
H       1.42530991      0.00094006     -1.39477499
H       1.97660432      1.30082214      1.32324773
H       3.09570728      1.27842011     -0.05080353
H       1.56660166      2.16066945     -0.16385646
H       1.56622364     -2.16058162     -0.16693806
H       3.09549087     -1.27877802     -0.05270112
H       1.97644160     -1.30292822      1.32137336
