15
b3lypvtz=-212096.3806089
C       3.03380214     -0.29122304     -0.00018887
N       1.72832534      0.33466205     -0.00015559
C       0.71515449     -0.41696606     -0.00008417
N      -0.58481538      0.07215404     -0.00005399
C      -0.90070916      1.49168144     -0.00011212
N      -1.54358535     -0.87071576      0.00000114
N      -2.70887561     -0.41745093      0.00000287
H       3.59593340      0.03628239     -0.87753424
H       2.99796708     -1.38882115     -0.00005440
H       3.59607815      0.03649286      0.87698375
H       0.73368085     -1.50917349     -0.00003733
H       0.04072246      2.02982687     -0.00010504
H      -1.49156494      1.74047777      0.88125679
H      -1.49151400      1.74042296     -0.88153205
H      -3.31547547     -1.23944097      0.00005127
