13
b3lypvtz=-190378.63884928
C       1.06395511     -0.07889516      0.51406759
C      -0.38541041      0.08083200      1.06141790
C      -0.63935735     -0.98704605     -0.04351964
N       0.79088669     -1.43852660     -0.05729207
C      -0.68316434      0.24291939     -0.96694741
C       0.57494795      0.91378830     -0.55501181
N      -0.71225198      1.26204387      0.13573548
H       1.99126064      0.09399257      1.05027949
H      -0.71632743      0.06647268      2.09584200
H      -1.42978868     -1.72990543     -0.06953841
H       0.91491606     -2.12655538      0.68443893
H      -1.18969715      0.38978082     -1.90881155
H       1.12703089      1.62529899     -1.15016051
