15
b3lypvtz=-170284.5186541
C      -2.30730397     -1.46116297     -0.08652222
C      -1.58283004     -0.50340722     -0.01858897
C      -0.68535711      0.60146173      0.09442358
C      -1.01394180      1.80979456     -0.37228222
C       0.64743893      0.32708655      0.77284488
C       1.51661702     -0.63529721      0.00992791
C       2.75029686     -0.37287582     -0.39962176
H      -2.95929469     -2.29584709     -0.15525445
H      -0.33105841      2.64410052     -0.28339557
H      -1.96629771      1.99134641     -0.84986736
H       0.44287432     -0.09015732      1.76516587
H       1.17394266      1.27095839      0.91782304
H       1.07593842     -1.60383897     -0.20379886
H       3.33502818     -1.10624379     -0.93904637
H       3.22321933      0.58353424     -0.20836248
