17
b3lypvtz=-215291.3776002
C      -0.89090997      1.70240443     -0.06040983
C      -0.42932592      0.27252096      0.21455673
C      -1.38710326     -0.76724450     -0.38822807
N      -2.71768434     -0.67613953      0.21811267
N       0.89355456      0.06207315     -0.36193966
C       1.86108794     -0.17727617      0.40136664
O       3.11830632     -0.37912775     -0.04663948
H      -0.25056624      2.42139410      0.45206966
H      -1.91771254      1.83474040      0.27661413
H      -0.84266984      1.91010743     -1.13096669
H      -0.40767906      0.11425471      1.30519975
H      -0.92306464     -1.75729318     -0.29037591
H      -1.48060841     -0.56635132     -1.45751605
H      -2.71524558     -1.07856027      1.14820328
H      -3.39213440     -1.20183396     -0.32311515
H       1.82107977     -0.24985744      1.49029915
H       3.08768962     -0.29762906     -1.01150718
