16
b3lypvtz=-181109.40365218
C      -2.20066041      0.74812964     -0.10182053
C      -1.08869708     -0.26570661     -0.13163418
C       0.01096409     -0.27722693      0.85703147
N      -1.07114783     -1.26693768      0.95541155
C       1.40972005     -0.72505230      0.46873176
C       2.26288893      0.37950607      0.04100229
C       2.95006582      1.30056981     -0.30267176
H      -1.93141624      1.63746601     -0.67537561
H      -3.11631944      0.33335548     -0.52844843
H      -2.41527803      1.04825716      0.92380494
H      -0.82414079     -0.62544187     -1.12227288
H      -0.01002484      0.46555417      1.64759188
H      -0.75918226     -2.16788692      0.60552637
H       1.34348149     -1.46574858     -0.33503156
H       1.87863108     -1.23146577      1.31898166
H       3.56111545      2.11262831     -0.60820238
