12
b3lypvtz=-223818.49686308
C      -2.51856447     -0.92585527     -0.00016746
C      -1.19414149     -0.82209038     -0.00000289
C      -0.55608285      0.51837623      0.00001334
O      -1.15971497      1.57114292     -0.00012185
N       0.83742984      0.55029444      0.00004715
N       1.61819753     -0.54523309      0.00010865
N       2.83171697     -0.26972472      0.00007981
H      -3.13960171     -0.03965132     -0.00029005
H      -3.00710841     -1.89051348     -0.00018013
H      -0.55067476     -1.68889762      0.00011460
H       1.29187707      1.46095160     -0.00001942
H       3.32212524     -1.16684332      0.00012926
