15
b3lypvtz=-242850.96999296
O      -3.41025618      0.19116258      0.32762388
C      -2.26115223      0.45554210      0.04912580
N      -1.31646647     -0.45464057     -0.30569465
C       0.06643955     -0.14550746     -0.61091804
C       1.05166454     -0.69745997      0.42369826
C       2.49090151     -0.36122701      0.09580507
F       2.66972548      1.02589543      0.10128933
H      -1.86505210      1.48776256      0.05307529
H      -1.62145577     -1.41702280     -0.31883677
H       0.32116300     -0.52914382     -1.60392494
H       0.16081809      0.93919840     -0.66011222
H       0.80258335     -0.30550913      1.41206268
H       0.96276331     -1.78704244      0.48034023
H       3.17558234     -0.78291457      0.83304813
H       2.77413361     -0.71902629     -0.89758505
