14
b3lypvtz=-203649.45533114
C       1.88235008      0.20193755     -0.03916877
C       0.83767672      1.22035777      0.40081678
C      -0.32827019      0.72955651      0.00549254
C      -0.17796366     -0.60167453     -0.61930340
O       1.14162870     -1.01796904     -0.33088024
C      -1.46508829     -0.94992398      0.21266524
N      -1.68004227      0.53013506      0.47475766
H       2.45316367      0.49870891     -0.92858677
H       2.59233272     -0.01684791      0.76072763
H       1.04653295      2.05318804      1.05412932
H      -0.38855007     -0.66639428     -1.69453096
H      -1.24491160     -1.46287154      1.14730008
H      -2.27204744     -1.44852729     -0.32299064
H      -2.39681130      0.93032473     -0.12042849
