15
b3lypvtz=-216941.73686642
C       2.63095687      0.91365409     -0.00001173
C       2.24604184     -0.35431686     -0.00005033
C       0.84063353     -0.85821123      0.00006327
O      -0.08180308      0.24246565      0.00024194
C      -1.39452074     -0.08100540      0.00016650
C      -2.25256431      1.15597062     -0.00001587
O      -1.79961181     -1.21515711     -0.00009522
H       1.91566389      1.72401151      0.00012061
H       3.68026974      1.17534769     -0.00011246
H       2.98990026     -1.14531470     -0.00018063
H       0.65204323     -1.48549514      0.87555860
H       0.65184618     -1.48535420     -0.87549085
H      -2.03159936      1.76273922     -0.87857333
H      -3.29978603      0.86961131     -0.00025267
H      -2.03201622      1.76285456      0.87856514
