15
b3lypvtz=-214513.03045495
C       1.97314543     -1.12188268      0.48624220
N       1.04292134     -0.72846053     -0.57633895
C      -0.16106525     -0.10177185     -0.15146992
C      -0.07678637      1.33228605      0.14816556
N       0.89981223      2.10921345     -0.09989702
C      -1.31531226     -0.79345723     -0.08154918
O      -2.56453286     -0.31847246      0.15393694
H       1.55419264     -1.86547739      1.17631128
H       2.87861214     -1.53001925      0.03695081
H       2.25358573     -0.24473150      1.06838339
H       0.85658198     -1.50031876     -1.20010825
H      -0.93371814      1.77706740      0.66281768
H       1.62770893      1.57954324     -0.58839804
H      -1.33867696     -1.86102236     -0.26275279
H      -2.54933157      0.63961088      0.25649228
