18
b3lypvtz=-202818.60291826
C       3.20982695     -0.20003143     -0.35969220
N       2.05415098      0.20832774      0.42852941
C       0.78186036     -0.05100436     -0.23215986
C      -0.38871203      0.37867545      0.65902522
C      -1.74062357      0.08895452      0.03806356
N      -2.52546548      0.94322064     -0.49397505
N      -2.07570811     -1.25027909      0.00321696
H       3.20798041     -1.28612686     -0.47307949
H       4.12560383      0.07569107      0.16357516
H       3.24359705      0.23873555     -1.36915615
H       2.12612574      1.19517469      0.64798055
H       0.69482400      0.44993342     -1.21015849
H       0.71597814     -1.12338326     -0.42931039
H      -0.32532612      1.44998251      0.85900416
H      -0.29432536     -0.13167946      1.62165230
H      -2.12234224      1.87452789     -0.45557397
H      -3.02540073     -1.44042168     -0.27570914
H      -1.71531280     -1.84538733      0.72940641
