15
b3lypvtz=-212144.21481523
C      -0.25357118     -0.90922157     -0.06638800
C      -1.34114584      0.15169910     -0.23520824
N      -2.19682941      0.18742745     -1.18430644
N      -1.34783043      1.09680371      0.74741119
C       1.09396476     -0.32609752      0.30334499
N       1.37734417     -0.17225847      1.53977623
N       1.90116304     -0.02018723     -0.77022855
H      -0.54954579     -1.57683180      0.74267626
H      -0.18680516     -1.49265419     -0.98382941
H      -2.04215864     -0.57100924     -1.84053555
H      -2.13642068      1.71776389      0.79200219
H      -0.76611772      0.97339843      1.55905753
H       2.28826584      0.26690953      1.67283399
H       2.69148183      0.58165241     -0.60481381
H       1.46820520      0.09260553     -1.67179239
