16
b3lypvtz=-227750.3872406
C      -0.32605408     -0.17951450     -0.35477852
C       1.05714732      0.28729853     -0.07163783
C       2.05933452     -0.54603934      0.21855430
N       3.39534632     -0.20957517      0.39102022
O      -1.21407157      0.26984512      0.68928280
C      -2.56494156      0.01652217      0.43301114
O      -3.10817797      0.81728242     -0.59630050
H      -0.68960004      0.21115746     -1.30986590
H      -0.35900008     -1.27518645     -0.40607070
H       1.23453262      1.35751461     -0.11570983
H       1.87081368     -1.61357861      0.27142375
H       3.91567448     -0.81074191      1.00921024
H       3.57722524      0.76639112      0.57004761
H      -3.07818799      0.18709382      1.38281847
H      -2.72491938     -1.01548207      0.10366965
H      -3.04512152      1.73701281     -0.31653839
