13
b3lypvtz=-237101.62338027
C       1.57436548      1.11893305      0.58199526
C       1.20534799     -0.23405550      0.05370412
N       1.91318981     -1.08660701     -0.53498129
O      -0.09865298     -0.64437614      0.36087062
C      -1.15935167      0.06076609     -0.14117686
N      -2.31665404     -0.46973280      0.33767855
O      -1.07282542      1.01198401     -0.87751661
H       0.97115717      1.88458538      0.09673623
H       1.37404590      1.16386328      1.65431852
H       2.62899827      1.32198998      0.40774975
H       2.86294902     -0.74126074     -0.65063016
H      -2.29777212     -1.37897979      0.76473422
H      -3.16479042     -0.16758182     -0.10687634
