11
b3lypvtz=-236319.59518914
N      -2.05492178     -1.36463198     -0.60285357
C      -1.85356813     -0.11694939     -0.51529903
C      -0.56395945      0.52391304     -0.14354206
N       0.46114192     -0.17911114      0.12341910
C       1.64956730      0.55518774      0.47031740
O       1.76305426      1.74550369      0.53160736
O       2.65966067     -0.28507176      0.72942595
H      -1.19160573     -1.86943150     -0.37804553
H      -2.67860264      0.56271768     -0.72506201
H      -0.52058636      1.61491564     -0.10571288
H       2.33001993     -1.18714202      0.61584526
