17
b3lypvtz=-191961.60025338
C       3.08531156      0.40782180      0.14527193
C       1.77361863     -0.17280567     -0.27693905
N       0.84236601     -0.41239577      0.54120401
C      -0.40377170     -0.95246719      0.02475992
C      -1.53606403      0.01351790      0.27761862
C      -2.76080446      0.01212257     -0.55279777
N      -1.73518087      1.05307804     -0.73996433
H       3.26750747      1.35253769     -0.37399694
H       3.09881489      0.57884503      1.21959456
H       3.90583240     -0.26240038     -0.12483277
H       1.65768057     -0.38335021     -1.35026412
H      -0.35525524     -1.17109548     -1.05093672
H      -0.61205020     -1.88684579      0.55534126
H      -1.64698772      0.30567814      1.31634750
H      -3.69888218      0.27893475     -0.08076355
H      -2.85327107     -0.68472210     -1.37716136
H      -2.02886406      1.92354667     -0.31102095
