13
b3lypvtz=-242034.65967288
C      -2.57365572     -0.30258490     -0.56268110
C      -1.13811359     -0.03165833     -0.89139141
C      -0.16562362     -0.06210356      0.00685062
O       1.14064892      0.19742785     -0.36073307
N       1.98936420      0.11268613      0.73437619
C       3.19462038      0.34219122      0.44466774
F       3.65085853      0.63882145     -0.77132132
H      -3.20595236      0.55520665     -0.80744187
H      -2.70721372     -0.52478362      0.49673312
H      -2.95859376     -1.15151740     -1.13416354
H      -0.88549380      0.20131304     -1.91994485
H      -0.29346738     -0.28131645      1.05811155
H       3.95262191      0.30631793      1.21289213
