16
b3lypvtz=-204455.02937828
C      -1.16498168      1.02143844     -0.08476871
C      -0.67462322     -0.29002252     -0.62797549
N      -1.22938181     -0.62413490     -1.86746637
C       0.23683167     -1.07664686     -0.01845182
C       0.99842236     -0.77503682      1.19722422
C       1.75686616      0.30850746      1.39611851
O       1.96225534      1.31951192      0.50755412
H      -0.82646991      1.86226705     -0.69600700
H      -0.82663796      1.17666303      0.93548614
H      -2.25891696      1.04336261     -0.09410439
H      -2.19252478     -0.34912419     -1.98997019
H      -1.07242302     -1.57682741     -2.16157279
H       0.41809987     -2.05388629     -0.46230191
H       1.01331818     -1.52111989      1.98394207
H       2.30446365      0.47291887      2.31408278
H       1.55580210      1.06212952     -0.33188915
