18
b3lypvtz=-205190.72411473
C      -2.44212071      0.85006916     -0.06495980
C      -1.99568590     -0.59567365      0.12979008
N      -0.65245091     -0.84460868     -0.39539422
C       0.43372786     -0.29942318      0.39502894
C       0.98925167      1.08923749      0.00675854
O       2.32994196      0.55724045     -0.12241782
C       1.84150334     -0.79359602      0.02340098
H      -3.46613407      0.98252738      0.28833973
H      -1.81238615      1.54524991      0.49284922
H      -2.39968049      1.12551523     -1.11924806
H      -2.68068311     -1.25662348     -0.40456788
H      -2.07011094     -0.85403641      1.19909880
H      -0.51401029     -1.84096400     -0.50904134
H       0.24057586     -0.37040930      1.47451980
H       0.93979519      1.87737849      0.76115640
H       0.60307511      1.45522117     -0.94750075
H       1.86942371     -1.34021363     -0.92548727
H       2.39197986     -1.34946691      0.78498167
