12
b3lypvtz=-200524.76612027
C      -2.66944785      0.31756356     -0.00000283
C      -1.63113438     -0.51740389      0.00001998
C      -0.23449940     -0.12698838      0.00002667
C       0.43863815      1.08030460     -0.00001092
N       1.77406989      0.84853256      0.00001940
N       1.98697427     -0.43548189      0.00003239
N       0.78371429     -1.02881951      0.00000930
H       0.72948748     -2.03429760     -0.00011406
H      -2.54405066      1.39232249     -0.00003297
H      -3.68292828     -0.05694016      0.00001532
H      -1.82060308     -1.58631207      0.00004077
H       0.04252457      2.08017029     -0.00004204
