15
b3lypvtz=-216924.44213429
C       2.32629695     -0.92723717      0.13648372
C       1.23319268      0.09730238     -0.06408994
O       1.43669524      1.15237473     -0.63084499
C      -0.11515874     -0.25712159      0.45770377
C      -1.05251809      0.86977823      0.88194637
C      -1.31724017      0.12626941     -0.37414965
O      -2.33722673     -0.83109628     -0.42203685
H       2.46432719     -1.12445879      1.20260028
H       2.04131959     -1.87524126     -0.32656521
H       3.25736480     -0.56961712     -0.29568285
H      -0.21432274     -1.19202479      0.99124918
H      -1.68850631      0.66303087      1.73108025
H      -0.65291901      1.87129254      0.80360096
H      -1.09367720      0.62670175     -1.31061858
H      -3.18134546     -0.37241091     -0.48822147
