15
b3lypvtz=-214490.46133626
C      -1.54165819      1.69522221      0.41519063
C      -1.35058954      0.27582921      0.85542837
C      -0.27843799     -0.48346408      0.61071743
N      -0.04311532     -1.77036685      1.08571703
O       0.78820998      0.08143121     -0.07496658
N       1.53451806     -0.84990755     -0.80310773
C       2.46961842     -0.28736307     -1.44585880
H      -1.58460736      2.38178911      1.26700097
H      -0.73239179      2.02611556     -0.23304043
H      -2.48016474      1.81677243     -0.13350820
H      -2.12779142     -0.17131678      1.46393935
H      -0.88738854     -2.23454406      1.38238079
H       0.48557879     -2.33172207      0.43358531
H       3.10519957     -0.93343820     -2.03579655
H       2.64292007      0.78486294     -1.41968157
