14
b3lypvtz=-201297.65307968
C      -2.89439662     -0.41323914      0.31247370
C      -1.67851874     -0.71150965     -0.13289528
C      -0.52787848      0.22842093     -0.18420952
N      -0.59283968      1.50587254     -0.21099512
N       0.69788506     -0.44816481     -0.25215387
C       1.72544466      0.15181882      0.22116226
N       2.97172534     -0.34903603      0.09853527
H      -3.14562981      0.57252283      0.68617294
H      -3.68341576     -1.15260715      0.32916850
H      -1.45097176     -1.71834069     -0.46154359
H      -1.56006707      1.82093481     -0.18691131
H       1.65739131      1.10928325      0.74021470
H       3.74136538      0.06061334      0.59292768
H       3.09946516     -1.24299505     -0.34484436
