13
b3lypvtz=-239449.96767802
C      -3.01927803     -0.18056036     -0.23729787
O      -1.80036989      0.35394917      0.24508187
C      -0.69674813     -0.48872217      0.00562966
C       0.52908944      0.15050939      0.56972797
O       1.31942351      1.07520467     -0.37730946
C       1.85549686     -0.06810521      0.02710474
O       2.85408936     -0.69102192     -0.12255458
H      -3.25637993     -1.13640746      0.24540091
H      -2.98815273     -0.33342174     -1.32229862
H      -3.79946910      0.53992859     -0.00235589
H      -0.83296282     -1.46284709      0.50091368
H      -0.56043792     -0.67825968     -1.06679726
H       0.42314237      0.59052982      1.55498585
