15
b3lypvtz=-191208.6283425
C       2.48046989      0.00002781      0.57334077
N       1.36740672     -0.00000387     -0.34983134
C       0.34439954     -1.05172911     -0.21962460
C      -0.72444569     -0.00004291     -0.62735897
C      -1.99623328     -0.00002500      0.06538995
N      -3.00194213      0.00010628      0.62586307
C       0.34436533      1.05169210     -0.21965518
H       3.10046011      0.88129698      0.40233162
H       2.16227173      0.00003939      1.62911518
H       3.10048664     -0.88122807      0.40235908
H       0.47138211     -1.91487509     -0.87298490
H       0.19535495     -1.39157379      0.81374237
H      -0.89134138     -0.00006285     -1.70292193
H       0.19530717      1.39156026      0.81370146
H       0.47131628      1.91482286     -0.87304157
