14
b3lypvtz=-227009.35320174
C      -1.18690509      1.23035249     -0.15736130
C      -0.77741603     -0.12573873      0.35038555
C      -1.63457935     -1.12975970      0.52863198
N       0.57708646     -0.25540012      0.73417347
C       1.52074421     -0.25040536     -0.09403672
O       2.81672186     -0.33673977      0.28697609
O       1.41270702     -0.17522749     -1.43341887
H      -2.25758822      1.26769265     -0.35070673
H      -0.93792146      1.99973986      0.57758109
H      -0.65743908      1.47842410     -1.07955407
H      -1.30851359     -2.08028285      0.92684653
H      -2.67978564     -1.01486276      0.28044215
H       2.81698783     -0.39695575      1.25155703
H       2.29590112     -0.21083655     -1.82151617
