9
b3lypvtz=-261266.18642584
C      -0.29562204      0.84670656     -0.20305163
C      -0.60595075     -0.32655958      0.34236249
O       0.53492361     -1.00132214      0.67464526
C       1.60249171     -0.19723861      0.31297045
O       2.74514458     -0.47615674      0.45988682
O       1.10258433      0.94058930     -0.22731999
O      -1.72638039     -0.98786278      0.63649799
H      -0.86256356      1.66704487     -0.59541536
H      -2.49462750     -0.46520089      0.38073310
