16
b3lypvtz=-227776.4638235
C       2.39847712     -0.85805717      0.21347867
C       1.21786799      0.02859321     -0.06476465
N       1.22739140      1.26350403     -0.37644416
O       0.06497953     -0.65059048      0.06093539
C      -1.16240996      0.07076769     -0.27956201
C      -2.29483652     -0.91090431     -0.11826594
O      -1.35956982      1.15768722      0.55610896
H       3.33056308     -0.30069717      0.15427553
H       2.30328321     -1.29645321      1.20743254
H       2.42342196     -1.68077815     -0.50225092
H       2.17399136      1.62057511     -0.44021117
H      -1.03406547      0.38963014     -1.31838459
H      -3.22896666     -0.43532203     -0.41361542
H      -2.12922407     -1.78984234     -0.73942932
H      -2.37059233     -1.21734714      0.92444532
H      -0.62968581      1.76785161      0.35703876
