15
b3lypvtz=-191187.61185168
C      -2.74313776     -0.09774165     -0.33781352
C      -1.51757580     -0.54818888     -0.10462896
C      -0.52117802      0.12615487      0.80236904
C       0.73190706      0.57892957      0.08986897
C       1.00031420      1.84555252     -0.23383058
N       1.74199009     -0.35490511     -0.28331228
N       1.50214771     -1.53347808      0.03906785
H      -3.11471695      0.81119275      0.12182647
H      -3.42361738     -0.62470667     -0.99370118
H      -1.17914341     -1.46216429     -0.57877289
H      -0.98485498      0.99173507      1.27635822
H      -0.22928301     -0.57567991      1.58861151
H       1.92103176      2.08527598     -0.74690036
H       0.31707028      2.64916872      0.00196411
H       2.30361221     -2.09333089     -0.27969341
