16
b3lypvtz=-227749.08337004
C      -2.86825637     -0.21232906      0.19704564
C      -1.47363038     -0.47772218     -0.32936279
O      -0.60918234      0.55101131      0.15634645
C       0.72581837      0.47868560     -0.29457606
O       1.31691548      1.73187612     -0.11689646
C       1.47765093     -0.59442316      0.47261890
N       2.02597617     -1.63234544      0.00429207
H      -3.55744121     -0.97708873     -0.16370430
H      -3.22607452      0.76180776     -0.13619513
H      -2.87708185     -0.22799576      1.28700963
H      -1.11788019     -1.46045191     -0.00097907
H      -1.46355531     -0.46902106     -1.42654634
H       0.76450279      0.26695725     -1.37105475
H       1.16914895      2.00613190      0.79650412
H       1.52328700     -0.42600973      1.55285394
H       1.91552848     -1.67576891     -1.01269186
