14
b3lypvtz=-180331.82438399
C      -2.37987223      1.07772831      0.00359296
C      -1.54736583      0.05656571     -0.13274955
N      -0.29419218      0.19311276     -0.78608435
C       0.24189857     -1.00627454     -1.42153527
C       0.83670727     -0.52748211     -0.14369276
C       2.10427558      0.14404553     -0.07871658
C       3.17459845      0.68212883     -0.01387671
H      -3.32915845      0.95368447      0.50516017
H      -2.12597870      2.05466088     -0.38416824
H      -1.80376773     -0.93217238      0.25456883
H      -0.34968928     -1.91544585     -1.37942612
H       0.76926796     -0.83571788     -2.35054092
H       0.58600013     -1.11119395      0.73689107
H       4.11727645      1.16646020      0.04047748
