18
b3lypvtz=-181914.60244238
C       1.28523720     -0.10654888      1.34605890
C       0.62358737      0.00662726     -0.04261157
N       1.61786600      0.07765041     -1.13070514
C      -0.29830056      1.21011206     -0.08639247
C      -1.58052049      0.87607827     -0.01495942
C      -1.77146023     -0.61766734      0.05906451
C      -0.36938516     -1.15851452     -0.30340007
H       1.94259820     -0.97894616      1.38512645
H       1.88805264      0.77899878      1.56141261
H       0.54137795     -0.20440991      2.13979946
H       2.19996685     -0.75425510     -1.11822754
H       2.24544474      0.86050965     -0.97598485
H       0.08601383      2.22230111     -0.12176930
H      -2.40500187      1.57665281      0.01741992
H      -2.54555927     -0.97990648     -0.62103413
H      -2.08281495     -0.91926461      1.06548631
H      -0.10599001     -2.06199982      0.24826179
H      -0.33319024     -1.38904552     -1.36815245
