20
b3lypvtz=-205957.96186363
C       3.29970397      0.11976223     -0.11785670
O       2.07688599     -0.42991834      0.31850758
C       0.94832268      0.19679182     -0.26187876
C      -0.29555016     -0.47783456      0.30041833
N      -1.52725058      0.01510012     -0.30544092
C      -1.89613588      1.34421801      0.15824160
C      -2.62706126     -0.91968901     -0.12829111
H       4.09926341     -0.42806436      0.37787640
H       3.42200645      0.02219775     -1.20414194
H       3.38129517      1.18254853      0.14432568
H       0.96155352      1.27085377     -0.03428340
H       0.96039410      0.08923070     -1.35438425
H      -0.29889569     -0.37184392      1.39875343
H      -0.21108965     -1.54420689      0.08679804
H      -1.10227508      2.06003699     -0.04937391
H      -2.10752481      1.37383249      1.24194141
H      -2.78977961      1.68040740     -0.36861802
H      -2.90303974     -1.06860815      0.93049488
H      -3.50944635     -0.55271460     -0.65434586
H      -2.36193447     -1.89012299     -0.54839647
