13
b3lypvtz=-239477.96409477
C      -2.32049776     -0.32558370      0.30567006
C      -1.02626740      0.01185212     -0.38451832
O      -0.09774358     -1.14830933     -0.43786786
C       0.91640528     -0.42661888      0.12568280
O       2.04844400     -0.74691693      0.29701114
C       0.04765469      0.81669222      0.36261063
O       0.43702791      2.00418227     -0.27779067
H      -2.86507156     -1.08813921     -0.25121258
H      -2.14307245     -0.69783953      1.31541769
H      -2.94904943      0.56467278      0.36761435
H      -1.17211885      0.38674786     -1.39647244
H      -0.18280427      0.96694738      1.42286936
H       1.28121643      2.29129195      0.08770284
