14
b3lypvtz=-201265.4582606
C      -1.96756521     -1.31575537     -0.20187427
C      -1.30103449     -0.16380406     -0.15950051
C       0.16094803     -0.02370279     -0.20119964
N       0.81178027      1.11226574      0.30979807
C       0.26536562      1.86810235      1.17046062
N       0.86742084     -0.94590886     -0.77164485
N       2.20876179     -0.85352705     -0.72077557
H      -3.04898949     -1.33347240     -0.21212572
H      -1.44920569     -2.26400797     -0.24260818
H      -1.85981826      0.76423935     -0.10223926
H       0.80429918      2.74847695      1.51092743
H      -0.71856936      1.68667675      1.60881557
H       2.57864674      0.06945121     -0.50922629
H       2.64776006     -1.34913384     -1.47890739
