18
b3lypvtz=-181909.67720209
C       3.70715807     -0.16402408      0.19238750
C       2.48393540      0.37192983      0.15198845
N       1.30922109     -0.29477812     -0.12036383
C       0.05565088      0.29239652     -0.15282951
C      -1.09852264     -0.32874979     -0.40999009
C      -2.43415344      0.35374598     -0.42451882
C      -3.40708552     -0.18842466      0.63181508
H       4.56101898      0.45503294      0.41675455
H       3.88428268     -1.21549323      0.00562449
H       2.34208105      1.42917120      0.34405282
H       1.36665762     -1.28306032     -0.30850814
H       0.07256852      1.35697949      0.05382468
H      -1.09203507     -1.39748383     -0.61121240
H      -2.89650133      0.24230321     -1.41197962
H      -2.29444276      1.42787257     -0.27516878
H      -3.01269806     -0.03847719      1.63813030
H      -3.57354070     -1.25946888      0.49814335
H      -4.37692577      0.30898835      0.56704098
