14
b3lypvtz=-180423.71228426
C       2.38064870     -0.02060852      0.00000677
C       0.87547126     -0.00585398      0.00000335
C       0.16513689      1.19887847      0.00000260
C      -1.21962420      1.17151159      0.00000105
C      -1.86500421     -0.05963970     -0.00000175
C      -1.08177807     -1.20453412     -0.00000142
N       0.25315054     -1.18930607     -0.00000310
H       2.73737125     -1.04767333     -0.00005150
H       2.77975815      0.49034073     -0.87909414
H       2.77974550      0.49023131      0.87917774
H       0.69871410      2.14072794      0.00000265
H      -1.78714667      2.09329656      0.00000107
H      -2.94392602     -0.13214150     -0.00000314
H      -1.54460425     -2.18572437     -0.00001118
