18
b3lypvtz=-205209.07703492
C      -2.39843702     -1.18394118     -0.12511527
C      -1.61968889     -0.00726566      0.45706123
N      -0.92103796      0.70329010     -0.60663600
C       0.25644213      1.14635186     -0.46772102
C       1.20891799      1.05916821      0.70026274
C       2.34594520      0.06908026      0.41274157
O       1.89029574     -1.27156614      0.29536292
H      -2.98900912     -1.67439253      0.65030652
H      -1.72106542     -1.92549684     -0.55204210
H      -3.06812259     -0.84580205     -0.91574630
H      -0.96272546     -0.36037089      1.25724476
H      -2.32580934      0.70114654      0.90194975
H       0.67457025      1.65612815     -1.34160270
H       0.70874316      0.77282094      1.62333404
H       1.64938950      2.04954724      0.85437035
H       2.89417832      0.37806845     -0.48595525
H       3.05109174      0.07074478      1.24369876
H       1.32642177     -1.33761125     -0.48251401
