12
b3lypvtz=-226225.4030746
C      -0.98250722     -0.94355915      0.08853421
C      -1.12824467      0.56377386     -0.05954607
C       0.23524996      1.10661394     -0.06746212
O      -0.55208158      1.06484477     -1.27190312
C       1.08491436     -0.11830159      0.05030094
N       0.46336017     -1.22454401      0.09448444
O       2.41940970      0.01311570      0.09499034
H      -1.42622771     -1.29355970      1.02406661
H      -1.46651173     -1.48126581     -0.72928986
H      -1.98861695      1.10713712      0.31124819
H       0.54738934      2.08129081      0.28207316
H       2.79386633     -0.87554595      0.18250329
