16
b3lypvtz=-181106.21987619
C      -3.08566745     -0.39333946     -0.04494893
C      -2.03802009      0.16503839      0.13001617
C      -0.75190039      0.82666311      0.32138707
C       0.35735602      0.25548656     -0.56989076
C       1.77208083      0.77246284     -0.20776847
N       1.99119725     -0.46295512      0.57943284
C       0.87867244     -1.13626188     -0.13436821
H      -4.01592869     -0.88182510     -0.19259120
H      -0.44901825      0.73888814      1.36880196
H      -0.86493026      1.89596102      0.11715985
H       0.07380531      0.34384362     -1.61658899
H       2.41261032      0.86923456     -1.09153328
H       1.83339376      1.69719914      0.37202332
H       2.90237552     -0.89208678      0.48219616
H       1.19198163     -1.74337170     -0.99058498
H       0.22432804     -1.73571635      0.50154844
