18
b3lypvtz=-205204.04523725
C      -2.15828469     -0.32681990      0.34099428
C      -0.97999501     -0.44947992     -0.62794777
C       0.35456506     -0.04319418     -0.03122366
C       0.70592452      1.43053185      0.04901545
C       1.43405886      0.53049709     -0.91793631
O       2.75974417      0.17720055     -0.67739738
N       0.89430066     -0.85373377      1.04417301
H      -2.27568514      0.70146926      0.68851369
H      -2.02138167     -0.96120918      1.21887368
H      -3.09214353     -0.62690767     -0.13632754
H      -0.90504939     -1.48196914     -0.98822694
H      -1.17105200      0.16441289     -1.51217910
H      -0.01388828      2.14353633     -0.33122805
H       1.26991101      1.76266961      0.91046862
H       1.23134608      0.64001156     -1.97566349
H       2.74237257     -0.31337117      0.16073382
H       0.45420981     -0.65204504      1.93314885
H       0.77104697     -1.84159916      0.85220884
