17
b3lypvtz=-171071.34045285
C       2.12766173     -0.38160666     -0.29859531
C       0.92825652      0.14185546      0.49993895
C       0.28046988      1.38549616     -0.07998571
C      -1.04231610      1.27065247     -0.18662348
C      -1.51309629     -0.08077044      0.22894781
C      -1.00565100     -1.22021275     -0.62953935
C      -0.25111235     -0.83003496      0.61267152
H       2.54876731     -1.27185604      0.17193359
H       1.84056607     -0.64290127     -1.31807726
H       2.91795754      0.36964772     -0.35546508
H       1.28511845      0.37144845      1.51184332
H       0.85738794      2.25013814     -0.38208251
H      -1.70814144      2.03650462     -0.56215470
H      -2.44650231     -0.19868421      0.76262087
H      -1.54863077     -2.15546708     -0.59164458
H      -0.60179261     -0.97083987     -1.60167715
H      -0.25914854     -1.53023872      1.43630508
