14
b3lypvtz=-203675.74602654
O       2.40106293     -0.55348028     -0.26477220
C       1.05561494     -0.37600200     -0.15042583
C       0.18995965     -1.27312225      0.33129912
C      -1.22790669     -0.75998663      0.22526335
C      -1.06327645      0.67493538     -0.27483429
N      -0.30590267      1.63259392      0.53194834
C       0.38507089      0.89590413     -0.54830338
H       2.81908899      0.28709995     -0.47478312
H       0.45944318     -2.22579161      0.76193761
H      -1.77000714     -0.79934696      1.17590990
H      -1.81820951     -1.34012865     -0.49120058
H      -1.83834901      1.11545063     -0.88742475
H      -0.05762926      1.22570675      1.42992506
H       0.77114017      1.49586763     -1.36443923
