12
b3lypvtz=-285470.25722942
C       2.99292824     -0.13371470     -0.00000167
C       1.56760835      0.31224134     -0.00000151
C       0.52023203     -0.50068025      0.00000074
C      -0.89553373     -0.03123994      0.00000049
F      -1.56584731     -0.48970130      1.08301703
F      -1.56584982     -0.48971060     -1.08301050
F      -1.01358341      1.31059645     -0.00000509
H       3.08116578     -1.21960084      0.00000385
H       3.51757680      0.25633353      0.87596519
H       3.51757346      0.25632427     -0.87597470
H       1.39260180      1.38259895     -0.00000401
H       0.62561082     -1.57877392      0.00000318
