12
b3lypvtz=-249575.38306383
C      -0.94628672      0.92737570     -0.22368732
N      -0.13390733     -0.26287991      0.04888548
C      -0.78984074     -1.48242920      0.27303794
O      -0.28864360     -2.54348410      0.50660374
C       1.25872926     -0.16445875      0.07978478
O       1.63266057      1.12152183     -0.16831963
O       2.03917209     -1.04902183      0.28852081
H      -1.99411758      0.63610051     -0.20304431
H      -0.71518956      1.34135884     -1.20294035
H      -0.77931743      1.69456102      0.52946904
H      -1.88235373     -1.33836598      0.20431861
H       2.59899478      1.11972189     -0.13252879
