16
b3lypvtz=-181135.09924897
C       3.20459377     -0.02455706      0.28868511
C       2.07510723     -0.39952746      0.08918203
C       0.74490797     -0.80792810     -0.15299112
C      -0.28340572      0.06672276     -0.27997037
N      -0.12594855      1.42388537     -0.11828554
C      -1.69271061     -0.39729660     -0.53047917
C      -2.63320836     -0.17984888      0.66438497
H       4.20293614      0.28333196      0.47230019
H       0.54095803     -1.86696760     -0.22729995
H      -0.78263080      2.02480431     -0.58719785
H       0.82189719      1.76806743     -0.10220739
H      -2.09029547      0.13289662     -1.40364269
H      -1.66928400     -1.45424910     -0.79396233
H      -3.64204272     -0.51758889      0.42307476
H      -2.68642952      0.87197039      0.94543737
H      -2.28579058     -0.73853516      1.53402800
