14
b3lypvtz=-227024.48802744
O       0.68330260      1.18219577      2.02586750
C       0.18622970      0.68434049      1.03416637
N      -1.10985593      0.34810255      0.82591445
C      -1.35826514     -0.31875250     -0.44856448
C       0.05917683     -0.74035049     -0.89054312
C       0.96072075      0.30137032     -0.23079944
O       2.24873404     -0.17286216      0.07702007
H      -1.82631763      0.56181071      1.49987494
H      -2.02424830     -1.17188240     -0.32113374
H      -1.81887975      0.36347996     -1.16946099
H       0.16155820     -0.78862758     -1.97239327
H       0.30953221     -1.71667641     -0.47404922
H       1.02120323      1.20417868     -0.85757725
H       2.50720920      0.26367305      0.90177818
