15
b3lypvtz=-214492.83726911
C       2.05976839     -0.84637664      0.33438231
N       1.55430455      0.29860665      0.09294617
N       0.22147207      0.54290805      0.01102074
C      -0.08349844      1.92378727     -0.35567366
C      -0.79573099     -0.41423947     -0.03074522
C      -0.74678672     -1.61153342     -0.62288941
O      -1.89711772      0.04404477      0.64595496
H       1.50011431     -1.76615710      0.46909539
H       3.13690661     -0.87021538      0.44040277
H       0.07658807      2.09138090     -1.42541335
H      -1.11735052      2.14290769     -0.10904448
H       0.57021797      2.58616949      0.20583196
H      -1.55887186     -2.31555315     -0.50960608
H       0.09849688     -1.90868123     -1.21961773
H      -2.64241261     -0.53115044      0.44130963
