18
b3lypvtz=-233522.95194228
C      -2.85454323     -0.13490279      0.18276371
C      -1.49594879      0.31499451     -0.31574209
O      -0.51394161     -0.56908364      0.22408837
C       0.80196845     -0.44538239     -0.29389736
C       1.50625606     -1.77534515     -0.04977710
C       1.57559198      0.68627717      0.36388738
F       1.07881632      1.93398298     -0.02608817
H      -3.63527910      0.51974821     -0.20851652
H      -2.89323562     -0.10189776      1.27213152
H      -3.06557906     -1.15623334     -0.13598575
H      -1.45546303      0.27900227     -1.41216198
H      -1.29374731      1.34546847     -0.01300258
H       0.75426494     -0.24262070     -1.37252103
H       0.93948483     -2.58082218     -0.51379771
H       1.57163380     -1.98237721      1.01976045
H       2.51397816     -1.77233565     -0.46700680
H       1.48891306      0.62027334      1.45044220
H       2.62849014      0.65401985      0.07457945
