10
b3lypvtz=-248742.28581111
C      -1.17528174     -0.68642024      0.03403343
C      -1.40548866      0.60642509     -0.09963850
O      -0.43033683      1.55657987     -0.16512194
N       0.92177206      1.05850473     -0.07780257
C       1.06140469     -0.20229473      0.05015662
O       0.14055780     -1.17652118      0.11980010
O       2.28484489     -0.72700234      0.13655799
H      -1.91653168     -1.46194290      0.08904485
H      -2.39627807      1.02777282     -0.16944255
H       2.91533754      0.00489890      0.08241257
