17
b3lypvtz=-194338.43640543
C      -1.22139336      0.55495004      0.76831323
C      -0.72339533     -0.89730119      0.51366429
C      -1.44244460     -0.80881657     -0.86211181
C      -0.69236644      0.54288376     -0.69404936
C       0.52921075     -0.29713888     -0.20303090
C       1.67501260      0.32750402      0.56719938
O       2.48654601      1.16564217     -0.25755093
H      -0.68690912      1.15819385      1.49770327
H      -2.29860462      0.67506775      0.88413582
H      -0.74257122     -1.73381461      1.21113495
H      -1.08299462     -1.47552088     -1.64679436
H      -2.53113158     -0.76598804     -0.83700707
H      -0.66979602      1.37587376     -1.39353371
H       0.93631040     -0.95644801     -0.97857744
H       2.28012993     -0.46631162      1.02406403
H       1.33087223      0.97130777      1.37416358
H       2.85352497      0.62991667     -0.96772296
