16
b3lypvtz=-202053.76130801
N       3.38664663     -0.58843430      0.11688361
C       2.14264175     -0.15816066     -0.35119987
C       1.19049628      0.44524103      0.36026288
C      -0.07180539      0.99425642     -0.23713365
N      -1.25681907      0.43330056      0.39993476
C      -2.10405246     -0.15196475     -0.33232477
N      -3.29866213     -0.64563215      0.14630465
H       3.73977357     -1.41752487     -0.33570909
H       3.45076888     -0.66712632      1.12137413
H       2.01464366     -0.29439943     -1.42056601
H       1.30830118      0.56894167      1.43257576
H      -0.06608707      0.82667254     -1.32539197
H      -0.10631112      2.08009876     -0.08752353
H      -1.98553843     -0.27374834     -1.41693260
H      -3.35437138     -0.72305899      1.15051874
H      -3.70772090     -1.41325018     -0.35951202
