14
b3lypvtz=-203691.82071711
N       1.85953636     -0.90146045      0.02887785
C       0.51944578     -0.63489596      0.08056099
C      -0.55479039     -1.42216656     -0.15046050
C      -1.75731413     -0.58238853     -0.10448945
C      -1.44640557      0.69910181      0.14570390
C       0.04320949      0.78688518      0.37748289
O       0.76491837      1.80606488     -0.30540027
H       2.17495676     -1.85239900      0.10504681
H       2.48730634     -0.20259113      0.38544869
H      -0.54674712     -2.47876987     -0.37229655
H      -2.75713340     -0.96944256     -0.24654903
H      -2.11679020      1.53487486      0.26605605
H       0.22493763      0.98174277      1.44156339
H       0.55347706      1.73149555     -1.24269577
