14
b3lypvtz=-203672.55815291
C       1.07135611      1.32061345      0.04805935
C       0.71425801      0.03539875      0.12237917
C       1.56908896     -0.86406847      0.93812307
O       1.38548066     -2.05017218      1.06926740
C      -0.45249161     -0.59045720     -0.54725084
C      -1.83714728     -0.29746256     -0.07873630
N      -1.37914137      0.16377316     -1.39370135
H       0.53484242      2.05137308     -0.54247230
H       1.93439187      1.68337284      0.59202037
H       2.42236549     -0.35877979      1.43402813
H      -0.25874444     -1.59714648     -0.89526243
H      -1.94794312      0.42936622      0.71682319
H      -2.58214582     -1.08250251     -0.09603598
H      -1.17406989      1.15649169     -1.36714150
