14
b3lypvtz=-203665.44146129
C       2.38455413     -0.88183901      0.12054685
C       1.32492609     -0.32346718      0.05485409
C       0.01407824      0.32537689     -0.02183861
C      -0.42760230      0.84134139      1.35400492
N       0.04767370      1.35166993     -1.08019269
C      -0.97054346     -0.74581570     -0.55861308
O      -1.95218411     -1.11715488      0.02130093
H       3.32477846     -1.37091523      0.18287939
H      -1.41982720      1.28681706      1.27810416
H       0.27678947      1.59169554      1.71114362
H      -0.48064348      0.03130191      2.07961052
H      -0.72621936      1.99493361     -0.96190253
H       0.90786778      1.88323129     -1.03825921
H      -0.69384098     -1.11410863     -1.56318537
