16
b3lypvtz=-204420.76108591
C       2.70450034     -0.32271285     -0.31489147
C       1.41766742     -0.05042215      0.44185407
C       0.58425055      1.20958782      0.02804143
C      -0.62781634      0.31083144     -0.03462245
N      -1.85357785      0.60791477     -0.09143375
O      -2.65751069     -0.55977499     -0.07113115
C       0.18177775     -0.95447635      0.12488816
H       3.13252810     -1.28712942     -0.03258603
H       2.52909433     -0.33931951     -1.39339090
H       3.45383109      0.44546624     -0.11123613
H       1.60990430     -0.03842397      1.51533590
H       0.53996013      2.03701937      0.73545441
H       0.87056999      1.60170456     -0.95098892
H      -3.54697554     -0.19400560     -0.09834726
H      -0.15736812     -1.64113262      0.89999532
H       0.28047053     -1.51282274     -0.80948522
