15
b3lypvtz=-214550.53560434
C       2.26409591     -1.08963176     -0.48126173
C       1.76070513     -0.07196197      0.55294504
C       0.46038051      0.59113531      0.15120577
N       0.30864758      1.78553292     -0.25435010
N      -0.64863598     -0.25761101      0.23562282
C      -1.94133084      0.05287646     -0.13422436
O      -2.85552885     -0.72995382     -0.02040556
H       3.20602694     -1.52945928     -0.15322595
H       2.43062555     -0.61091462     -1.44665221
H       1.55241391     -1.90232894     -0.63113545
H       1.62761124     -0.56431814      1.52108758
H       2.50572915      0.71039366      0.69716166
H       1.19760956      2.27593949     -0.26979007
H      -0.52335398     -1.18796158      0.60525095
H      -2.03550683      1.06846829     -0.53452639
