17
b3lypvtz=-191968.05031658
C       2.92088606     -0.27848040     -0.00003472
N       1.61175840      0.34168801      0.00005389
C       0.59130544     -0.40259712     -0.00001007
C      -0.78967638      0.13883717      0.00006245
N      -0.97421747      1.56630018      0.00021441
C      -1.83579241     -0.66738166      0.74758677
C      -1.83579593     -0.66723236     -0.74762361
H       3.47992434      0.05601236     -0.87669904
H       3.47993902      0.05579024      0.87670500
H       2.88838111     -1.37674654     -0.00017483
H       0.67526584     -1.50089322     -0.00012916
H      -0.49986329      1.96201847     -0.80540791
H      -0.50003004      1.96182875      0.80602796
H      -2.59262348     -0.08579848      1.25293853
H      -1.51731764     -1.56256395      1.26404632
H      -1.51732222     -1.56231277     -1.26425944
H      -2.59262735     -0.08554768     -1.25285654
