13
b3lypvtz=-213804.20438778
C       2.47297737     -0.45783629      0.00001266
C       1.06021373      0.00271753      0.00001005
C       0.53315387      1.24319517     -0.00000109
N      -0.85713596      1.11587157      0.00001091
H      -1.53044269      1.85934857      0.00000492
C      -1.23644305     -0.21541418     -0.00002297
O      -2.35817735     -0.68747526      0.00008663
N      -0.01896669     -0.88423988      0.00001466
H       0.03184944     -1.88688131     -0.00001451
H       2.69961026     -1.06366813     -0.88167906
H       2.69959533     -1.06369646      0.88168841
H       3.14612684      0.39805570      0.00003174
H       1.02527590      2.19819397      0.00003765
