14
b3lypvtz=-226998.15724673
N      -0.17395952      1.39293615      0.47575535
C      -0.40412888      0.04393653      0.03678955
C      -1.59726984     -0.20848637     -0.51585085
O      -2.56024189      0.72399643     -0.66177429
C       0.68762738     -0.99267749      0.16177245
C       1.76846607     -0.63728996     -0.83596689
O       2.71448173      0.06755592     -0.58646728
H      -0.03877009      1.43841063      1.48063825
H       0.65921220      1.79078365      0.05398815
H      -1.88813700     -1.18516487     -0.87769002
H      -2.16766768      1.54757126     -0.31800784
H       0.29160515     -1.98524349     -0.06213934
H       1.11591512     -0.98953791      1.16710661
H       1.59286726     -1.00659049     -1.86795386
