14
b3lypvtz=-201261.63570506
C       3.08877049     -0.42888516      0.11284406
C       1.74406215      0.21446011      0.19261903
C       0.61748676     -0.29911769     -0.30067141
C      -0.70204246      0.34598530     -0.19576601
N      -1.00834775      1.57062219     -0.07682401
N      -1.77409441     -0.60429186     -0.37948281
N      -2.58340778     -0.66151538      0.55004637
H       3.79808105      0.22103062     -0.40734962
H       3.05093434     -1.38402296     -0.40999015
H       3.49938886     -0.59701297      1.11222743
H       1.70195112      1.17051725      0.70813863
H       0.62592601     -1.27249850     -0.77851219
H      -0.17250541      2.15476804     -0.08822024
H      -3.30845297     -1.34068400      0.27002192
