18
b3lypvtz=-205220.73319282
C       0.53844066     -1.23175532     -0.17611214
C      -0.99014779     -1.22544765     -0.22430203
N      -1.45763882      0.03662311     -0.79263694
C      -1.05799702      1.18844429      0.01236249
C       0.46815022      1.27092590      0.06832649
C       1.06625835     -0.02917292      0.60728085
O       2.49245140      0.00717501      0.64312808
H       0.90552684     -2.15433654      0.27725188
H       0.92383033     -1.18654875     -1.20001256
H      -1.38012787     -1.39614438      0.79464145
H      -1.35069006     -2.04533558     -0.84741809
H      -2.46230422      0.01988193     -0.91050283
H      -1.45041611      1.13573768      1.04328382
H      -1.46789189      2.09215572     -0.44124897
H       0.84949008      1.44610817     -0.94304001
H       0.78595953      2.10742755      0.69338373
H       0.77453557     -0.13961244      1.65593600
H       2.81257082      0.10387424     -0.26032122
