16
b3lypvtz=-204443.21842006
C       2.57565858      0.19191998     -0.08152880
O       1.38295367     -0.47193177     -0.44476789
C       0.28878912     -0.22097354      0.44099123
C      -0.80845158     -1.21341119      0.19170026
C      -1.92338290     -0.57542835     -0.16984201
N      -1.82759402      0.81463453     -0.11353705
C      -0.41794423      1.14598406      0.18322981
H       2.48181851      1.28352941     -0.14577135
H       3.34885742     -0.12969277     -0.77739771
H       2.88614311     -0.06690136      0.93899294
H       0.67377921     -0.26895624      1.46806986
H      -0.68632820     -2.27781141      0.30184864
H      -2.87128189     -1.01729106     -0.44409171
H      -2.24980304      1.31653066     -0.88129709
H       0.05865467      1.64440069     -0.66341838
H      -0.36561144      1.80730037      1.04853825
