13
b3lypvtz=-190447.18145811
C      -1.78460398      0.02773212      0.21892239
C      -1.30503533     -1.23477834     -0.41147761
C      -0.46814546      0.02441771     -0.53445477
N       0.70121580      0.07598567      0.24997586
C       1.71672598      0.68783852     -0.20449177
C       2.92943554      0.76567652      0.55946997
N       3.92920429      0.86217524      1.12422951
H      -2.60268617      0.56443172     -0.23999916
H      -1.71694308      0.11648277      1.29284513
H      -0.91023740     -2.00571632      0.23317645
H      -1.78624649     -1.58556055     -1.31326143
H      -0.44511070      0.51709839     -1.50420868
H       1.74242701      1.18421654     -1.17893963
