16
b3lypvtz=-181100.09946881
C       2.34905455     -0.11464096      0.17001859
C       0.96556083      0.48265749      0.07898674
C      -0.03189976     -0.19686239     -0.83596809
C      -0.16912974     -0.27342278      0.68445203
N      -1.39423809      0.55288346      0.70381821
C      -1.32945793      0.55551677     -0.82918031
C      -2.38643068     -0.17776837     -0.10349068
H       2.31728742     -1.20472210      0.10871696
H       2.82985562      0.15061847      1.11351386
H       2.98541530      0.24280163     -0.64187592
H       0.92315687      1.56488447      0.15330678
H       0.27171355     -0.94613406     -1.55567912
H      -0.04431305     -1.10578779      1.36480269
H      -1.54097788      1.45859229     -1.38885263
H      -3.36974782      0.27360251     -0.06634130
H      -2.37584920     -1.26221863     -0.09074678
