10
b3lypvtz=-225488.3658381
N       3.58442006      0.23630425     -0.37742147
C       2.50602648     -0.16733412     -0.31016065
C       1.19305716     -0.69763470     -0.22397259
C       0.11747428      0.08682328     -0.29361996
O      -1.12558304     -0.47565271     -0.20530816
C      -2.21529567      0.35339350     -0.28004191
O      -2.17880986      1.53553049     -0.41627226
H       1.08917293     -1.76754529     -0.09896809
H       0.14406208      1.15954315     -0.41748676
H      -3.11462442     -0.26332786     -0.19254814
