16
b3lypvtz=-202013.35013087
C      -2.74281003      0.64996145     -0.19794170
N      -1.81424684     -0.36171821      0.27987804
N      -0.50314504      0.01688547      0.22204155
C       0.40421858     -0.86934606      0.11264881
C       1.83706420     -0.50060840      0.16769530
C       2.39891379      0.11597477      1.40788409
N       2.22389513      0.91001017      0.19075306
H      -3.75906411      0.29911502     -0.01958036
H      -2.58829990      1.56560047      0.37031009
H      -2.62851966      0.88107129     -1.26393724
H      -1.98914312     -1.28506698     -0.11010200
H       0.16263810     -1.93093631     -0.00790676
H       2.48932922     -1.13823658     -0.41916347
H       1.71009538      0.26839571      2.23004812
H       3.42639264     -0.08246625      1.68815039
H       1.37268164      1.46136447      0.26344182
