14
b3lypvtz=-180395.8713518
C       2.99688379     -0.56400704     -0.00000044
C       1.87744909      0.16623059      0.00000011
C       0.55636108     -0.42226472      0.00000007
C      -0.62274233      0.23480189     -0.00000006
C      -0.82273405      1.72791085     -0.00000025
C      -1.82501322     -0.53953285     -0.00000043
N      -2.81626203     -1.13090381     -0.00000075
H       3.97374422     -0.10117704     -0.00000053
H       2.96638062     -1.64673198     -0.00000103
H       1.95862903      1.24612761      0.00000038
H       0.52401546     -1.50618164      0.00000006
H      -1.39459126      2.03612125      0.87751114
H      -1.39458209      2.03612231     -0.87751730
H       0.12086469      2.26612057      0.00000503
