16
b3lypvtz=-204421.18773588
C       2.85465229      0.95215406      0.10464403
C       2.49035512     -0.32091950      0.16176495
O       1.23994233     -0.86387280      0.03297073
N       0.23065782      0.09850515     -0.18839427
C      -0.89996744     -0.46600538     -0.29613758
C      -2.13147040      0.34824041     -0.52629508
C      -3.16261564      0.17674169      0.59756575
H       2.15082608      1.75078618     -0.06197671
H       3.89938922      1.19362592      0.23006711
H       3.19099280     -1.12863220      0.32844952
H      -0.98706408     -1.54998069     -0.20994837
H      -2.57928107      0.03582099     -1.47530681
H      -1.84544689      1.39481007     -0.63153095
H      -4.06368854      0.75092471      0.38041043
H      -3.45359768     -0.86883907      0.71453764
H      -2.76135491      0.52213647      1.55087461
