18
b3lypvtz=-205209.5084414
C      -2.61498495     -0.26713357      0.60896865
C      -1.50744649      0.09085175     -0.05452015
N      -1.17830899      1.40672646     -0.36733839
C      -0.53609163     -0.93244394     -0.59112878
C       0.82753336     -0.93580327      0.09442203
O       1.53268294      0.25708574     -0.22701187
C       2.80213088      0.33320989      0.38871997
H      -2.86525437     -1.30758297      0.74811021
H      -3.30617683      0.46786336      1.00166003
H      -1.68078809      2.10928618      0.15257951
H      -0.18598967      1.58577567     -0.41602039
H      -0.37973854     -0.76429178     -1.66068238
H      -0.96952713     -1.92562824     -0.47484009
H       1.40778621     -1.80470973     -0.24403067
H       0.70678947     -1.01615461      1.18266584
H       3.44583692     -0.49881547      0.07854835
H       2.72044328      0.32084029      1.48231100
H       3.26113764      1.26969324      0.07699612
