12
b3lypvtz=-202903.17932286
C       2.01609291     -0.33411524      1.44455299
C       1.13733227      0.07376011      0.74152643
C       0.05161816      0.55363429     -0.11214497
C      -0.97990110     -0.56681902     -0.45536997
O      -1.59657881     -1.08994602      0.69613146
C       0.56218149      1.14294054     -1.35710147
N       0.91801305      1.58755890     -2.35591697
H       2.79705877     -0.69629155      2.06592087
H      -0.48755924      1.34757857      0.41771415
H      -1.70414778     -0.15762888     -1.16544826
H      -0.45454087     -1.39023099     -0.93574800
H      -2.25946885     -0.47024070      1.01608374
