17
b3lypvtz=-220273.71468291
C      -2.19137862      0.37745192      0.20047192
N      -1.09417421     -0.04311750     -0.66466264
C       0.15908998     -0.31749476     -0.00751197
C       0.85145114      0.82767237      0.68003102
F       1.15980573      1.82706895     -0.25559204
C       0.30381844     -1.68322146      0.61424769
C       1.02518006     -1.35828158     -0.66619162
H      -3.08298626      0.53030015     -0.40789103
H      -2.41198977     -0.41443910      0.91807041
H      -2.00883456      1.30197603      0.76568025
H      -0.94433697      0.63462259     -1.40209732
H       1.78688921      0.50983940      1.14373233
H       0.21817740      1.29195328      1.43893806
H      -0.55854713     -2.33077761      0.55197496
H       0.88328385     -1.78171076      1.52226791
H       0.64161125     -1.79271703     -1.57732124
H       2.09776544     -1.22585189     -0.63350169
