13
b3lypvtz=-213769.60823426
C      -1.98451141     -0.04111905     -1.19756896
C      -0.93966464      0.15098676     -0.10928422
N       0.39646478     -0.14036323     -0.62288487
C       1.38160770     -0.05885189      0.15122732
O       1.30714392      0.28927019      1.46891604
C       2.71602006     -0.34234948     -0.33330288
N       3.79959775     -0.55451083     -0.65942111
H      -1.97634409     -1.06826844     -1.56301733
H      -2.98158541      0.18016783     -0.81387206
H      -1.78610516      0.61784938     -2.04313110
H      -0.96435836      1.17702665      0.27292087
H      -1.15116139     -0.49552419      0.74887139
H       2.18299626      0.28558629      1.87384691
