15
b3lypvtz=-216893.39533751
C       1.61997613      0.38489619      0.24746785
C       0.32124037     -0.19207280     -0.27499658
C      -0.82703716      0.79450979     -0.67964398
C      -1.71887114      0.12138861      0.36329691
C      -0.65308989     -0.79943772      0.76714075
O      -1.06469137      0.26013949      1.63734080
O       0.52896724     -1.08046608     -1.36787299
H       2.29421683     -0.41323403      0.57304799
H       2.12238913      0.95746151     -0.53373786
H       1.43326160      1.03769806      1.09923762
H      -0.64820741      1.85809690     -0.52710314
H      -1.13481611      0.60140328     -1.70547118
H      -2.79264345      0.00063988      0.37379251
H      -0.68776506     -1.81362529      1.14440112
H       1.20707027     -1.71739777     -1.11689985
