17
b3lypvtz=-191959.41531559
C       2.99140067      0.79697902     -0.34463648
C       1.63566638      0.26324445     -0.35093782
C       0.51875560     -0.18496009     -0.36848752
C      -0.83749194     -0.75853183     -0.35898986
N      -0.88731513     -2.16698196      0.06767017
C      -1.78505056      0.06220477      0.52831778
N      -1.89292784      1.43596114      0.04385360
H       3.63047527      0.24260574      0.34580082
H       3.00247182      1.84475106     -0.03760211
H       3.44250637      0.73731821     -1.33716830
H      -1.23700543     -0.71123665     -1.37500525
H      -0.44326492     -2.25979028      0.97554746
H      -0.33943427     -2.73391383     -0.56922397
H      -2.76606503     -0.40960480      0.47106813
H      -1.43949923     -0.02326549      1.56991277
H      -2.58373453      1.94632273      0.57951018
H      -1.00918724      1.91879782      0.16047041
