17
b3lypvtz=-194394.06114188
C       2.95496474     -0.34566623      0.52189804
C       1.92577071      0.21221109     -0.47332689
C       0.59264042     -0.45078297     -0.34367509
C      -0.60474264      0.10343848     -0.09826380
C      -0.90462638      1.55945250      0.10002004
C      -1.75390423     -0.82006138     -0.01788004
O      -2.89578829     -0.47961777      0.19495763
H       3.92861495      0.12219630      0.37219234
H       2.64454985     -0.16099438      1.55103763
H       3.07884885     -1.42309454      0.39908949
H       1.84120396      1.29179439     -0.35319128
H       2.29653116      0.04099080     -1.49032670
H       0.61099600     -1.53340825     -0.45815268
H      -1.59136270      1.91294986     -0.67172295
H      -1.41495240      1.71261033      1.05237104
H      -0.01081725      2.17803181      0.07766881
H      -1.49971575     -1.88982701     -0.16955757
