12
b3lypvtz=-231222.03929726
C       2.25845426      1.26655772      0.00007254
C       1.72424276     -0.14445707     -0.00004572
O       2.43315191     -1.12726976     -0.00013075
C       0.27614726     -0.26856119     -0.00003850
C      -0.92467999     -0.35848516     -0.00005504
C      -2.36707393     -0.51486600     -0.00007637
F      -3.01677716      0.71568239     -0.00048346
H       1.89364839      1.80451317     -0.87746898
H       1.89392139      1.80422137      0.87790773
H       3.34550349      1.24327537     -0.00009657
H      -2.68762667     -1.06535335      0.88772214
H      -2.68754573     -1.06589950     -0.88756703
