16
b3lypvtz=-204464.11732188
C       1.89295370      0.09014017      0.12709789
C       0.47499085      0.28879476      0.68155453
C      -0.41667343      1.17365074     -0.19917724
N      -0.99631679      0.21449453     -1.15345043
C      -1.36524868     -0.97105741     -0.38660908
C      -0.28382437     -1.04140440      0.68696175
O      -0.06935146     -1.97843005      1.41127885
H       2.42431013     -0.66803950      0.70199926
H       2.45628378      1.02249754      0.18381777
H       1.85995571     -0.22533359     -0.91609073
H       0.53688194      0.65410492      1.70729945
H      -1.17725293      1.67129941      0.42162293
H       0.14108369      1.94594985     -0.72936414
H      -1.76637752      0.60438750     -1.67832634
H      -1.37464269     -1.87919699     -0.98968938
H      -2.33657194     -0.90165749      0.13117492
