15
b3lypvtz=-193615.90241263
C       2.99589349      0.00001147      0.11748367
C       1.77835912     -0.00008930     -0.41185004
C       0.50322797      0.00008543      0.35739597
C      -0.55272615      1.10212740      0.00173548
C      -1.61294023     -0.00003111     -0.04918170
O      -2.80913791     -0.00004005     -0.04572146
C      -0.55270711     -1.10214910      0.00226126
H       3.88338040     -0.00013682     -0.50103930
H       3.14805943      0.00024605      1.19055451
H       1.67339202     -0.00031797     -1.49508264
H       0.70932397      0.00035393      1.42765661
H      -0.38990117      1.54116141     -0.98576338
H      -0.71526099      1.90622997      0.71840432
H      -0.38984178     -1.54165334     -0.98501603
H      -0.71524905     -1.90592197      0.71930674
