16
b3lypvtz=-227754.26895773
C      -2.46366223      1.03543888     -0.05168560
O      -2.32200051     -0.36603201      0.21212629
C      -1.09227007     -0.88164800      0.07772403
N      -0.07303663     -0.22236803     -0.25688588
C       1.20302957     -0.91481746     -0.35564694
C       2.26311384     -0.12741199      0.40825526
O       2.37867917      1.19800896     -0.07931788
H      -3.51871140      1.25408207      0.08526287
H      -2.15226712      1.26717642     -1.06983129
H      -1.86013663      1.61965238      0.64310266
H      -1.10915880     -1.95186924      0.29646192
H       1.15858411     -1.94645909      0.02048257
H       1.49400965     -0.94975233     -1.40915691
H       2.01938625     -0.13321597      1.47892145
H       3.23906506     -0.59944640      0.28410599
H       1.47661671      1.52780080     -0.17557053
