14
b3lypvtz=-180344.62090859
C      -1.18104267      0.86382202      0.19455535
C      -0.96843999     -0.56576920     -0.30218066
C       0.32843105     -0.21700126     -0.94905789
C       0.35622643      1.03266634      0.03145727
C       0.93326189      0.07080568      1.05928450
N       1.74956794      0.26953741      1.99969096
C       0.34421770     -1.08125377      0.31809551
H      -1.73157935      1.45410294     -0.53768522
H      -1.59371572      1.02193943      1.19339194
H      -1.70812204     -1.27718557     -0.63988097
H       0.77098395     -0.41784347     -1.91053220
H       0.81888122      1.99681468     -0.14225313
H       2.00932736     -0.60835199      2.45150339
H       0.55790223     -2.13638324      0.39861113
