20
b3lypvtz=-182677.26607392
C       2.79527299     -0.11820752     -0.47285276
C       1.63233322     -0.08483555      0.52005826
N       0.60555822      0.83290231      0.05314172
C      -0.63455080      0.56723908      0.11903743
C      -1.60563895      1.59839483     -0.40110476
C      -1.27143577     -0.70264346      0.66650019
C      -1.50720043     -1.76405379     -0.42129333
H       3.60555892     -0.74531877     -0.09625186
H       2.47219456     -0.52016563     -1.43560123
H       3.18216970      0.88775769     -0.64392399
H       1.27214366     -1.10478225      0.70153802
H       2.00215352      0.29969840      1.47797435
H      -2.22546322      1.98226543      0.41465240
H      -2.28840271      1.16173001     -1.13520311
H      -1.06612842      2.42389159     -0.85882267
H      -0.65877305     -1.12432458      1.46249099
H      -2.23034508     -0.44001353      1.11953416
H      -0.56547999     -2.07932631     -0.87288092
H      -1.99352549     -2.64628109     -0.00117219
H      -2.14560588     -1.38297588     -1.22013469
