13
b3lypvtz=-242062.55169088
C       2.33811256      0.28560684      0.30905747
N       0.90605048      0.18197840      0.11290254
C       0.45088419     -0.84674199     -0.42589880
O      -0.88610350     -1.04817347     -0.67182852
C      -1.77978200     -0.13961680     -0.19133405
C      -2.56491828      0.60871232     -0.93949563
F      -1.85446127     -0.16462810      1.14193602
H       2.90026889     -0.58011201     -0.06341846
H       2.54635157      0.40529383      1.37343306
H       2.70456486      1.18242073     -0.19272648
H       1.01127019     -1.71013033     -0.78662093
H      -3.31085590      1.23717752     -0.48097176
H      -2.46138182      0.58811306     -2.01153446
