16
b3lypvtz=-204467.37667512
C      -3.13051741     -0.13652626      0.27573652
C      -1.78061865      0.43883141     -0.11845139
O      -1.71243227      1.47623429     -0.76495911
C      -0.60832412     -0.31395987      0.31896055
C       0.63293836      0.13225863      0.01342160
N       1.81086149     -0.45712129      0.30793608
C       3.10139901      0.17002878      0.10593866
H      -3.19553446     -0.25844897      1.35962145
H      -3.26441701     -1.12678411     -0.16720353
H      -3.92350723      0.52354997     -0.06651541
H      -0.75170564     -1.22603510      0.88651465
H       0.70545360      1.05662928     -0.55032980
H       1.78938535     -1.29012323      0.87338875
H       3.83694088     -0.57058450     -0.21002087
H       3.47372836      0.66474272      1.00889741
H       3.01634975      0.91730824     -0.68116870
