17
b3lypvtz=-194381.69639401
C       2.75843230     -0.27935036      0.08522880
C       1.58850367      0.65382172     -0.00820589
C       0.31105405      0.29717569     -0.07809007
C      -0.88425783      1.22148700     -0.16690759
C      -2.02084939      0.31135271      0.30165675
O      -1.66204806     -0.98743125     -0.16662322
C      -0.24619743     -1.11441880     -0.04225070
H       3.42677490     -0.15937735     -0.77252547
H       2.45469282     -1.32506682      0.12479002
H       3.35706795     -0.07114198      0.97659731
H       1.82827565      1.71324500     -0.02267190
H      -1.05791660      1.52506245     -1.20322559
H      -0.77193416      2.12207279      0.43619612
H      -2.09902622      0.31718407      1.39734258
H      -2.99456111      0.55795012     -0.11842912
H       0.10520732     -1.74157658     -0.86391899
H       0.01050615     -1.61663242      0.90063096
