15
b3lypvtz=-191199.42232044
C       3.22525510      1.00456892     -0.28163812
C       2.08863732      0.93238110      0.11623861
C       0.75675436      0.81560582      0.57275432
C      -0.05942936     -0.20619527      0.21912382
C      -1.48934297     -0.27880056      0.70141007
N      -2.51068929      0.03506048     -0.30471380
N       0.30812920     -1.18728349     -0.67606620
H       4.22517056      1.08932428     -0.62574980
H       0.37154927      1.58621008      1.22678807
H      -1.61418009      0.40388487      1.54097995
H      -1.69360981     -1.28518300      1.08179495
H      -2.40840757     -0.57346747     -1.10883234
H      -2.36917985      0.97915143     -0.64679043
H      -0.11710920     -2.09258160     -0.55663592
H       1.28645231     -1.22267559     -0.92074645
