19
b3lypvtz=-171829.6697886
C      -2.98518593      0.77364989      0.29562802
C      -2.24008354     -0.48792835     -0.16136303
C      -0.78712026     -0.24086399     -0.44224219
C       0.22619700     -0.82860913      0.18789836
C       1.67284631     -0.59103833     -0.04365250
C       2.20147778      0.65581460     -0.69324337
C       2.42834502      0.43309132      0.77826884
H      -2.56822485      1.15636488      1.22860512
H      -2.91026487      1.56694860     -0.45115002
H      -4.04474788      0.56740796      0.45656566
H      -2.33955956     -1.27063680      0.59450559
H      -2.72208678     -0.86797832     -1.06898291
H      -0.57365312      0.48564840     -1.22252389
H      -0.00041210     -1.56522958      0.95659326
H       2.23662006     -1.49577591     -0.24680665
H       3.04563880      0.55997230     -1.36198278
H       1.49652529      1.42350741     -0.97861698
H       3.42453578      0.18458359      1.11792905
H       1.85171484      1.03400645      1.46805942
