13
b3lypvtz=-192796.51984381
C       2.93069126     -0.05216057     -0.03360367
C       1.73495141     -0.04235876     -0.14605617
C       0.32065936     -0.02308402     -0.28412796
C      -0.54088100      1.20147569     -0.39021928
C      -0.81804836      0.20557630      0.70448557
C      -1.41977415     -1.05258949      0.10539444
O      -0.35097312     -1.14824658     -0.88253869
H       3.98720897     -0.06433366      0.06593564
H      -0.07917182      2.12337188     -0.06423512
H      -1.20650535      1.28291198     -1.24159511
H      -0.76376665      0.45212375      1.75310303
H      -2.40370340     -0.96888674     -0.36097072
H      -1.39068716     -1.91379977      0.77442804
