16
b3lypvtz=-181123.00312535
C      -3.17724402     -0.26971600      0.50256064
C      -1.70460216     -0.36391451      0.74233799
N      -0.85581050     -0.06887865     -0.14393728
C       0.56259255     -0.19220093      0.18445770
C       1.41044762      0.21562538     -1.02800368
C       2.84254658      0.11871275     -0.77539280
C       4.01736553      0.03163854     -0.54704911
H      -3.65193097     -1.24347036      0.65180380
H      -3.63808551      0.41655948      1.21843237
H      -3.37532437      0.07744131     -0.50940253
H      -1.40052713     -0.70764524      1.74308183
H       0.81815693      0.44558183      1.03580596
H       0.80546144     -1.22108137      0.46628248
H       1.13855993     -0.41640208     -1.87704748
H       1.15069911      1.23848546     -1.31194610
H       5.05769498     -0.04308251     -0.35198377
