11
b3lypvtz=-210564.70939446107
C      -1.99598830      0.15939827      0.39851625
N      -0.94763206     -0.29054273     -0.22266470
C       0.37271075      0.02286628     -0.01519561
C       1.51355438     -0.45475545     -0.67829844
N       2.55104481      0.14278999     -0.11972762
N       2.06259874      0.96679383      0.86179911
N       0.76069722      0.90338799      0.93358278
H      -2.96735859     -0.19943179      0.10206969
H      -1.85345580      0.87745623      1.19001992
H      -1.10600756     -0.96493866     -0.96364517
H       1.60983641     -1.16302395     -1.48645623
