16
b3lypvtz=-202047.97162322
C      -2.45182050     -0.38173734      0.51176894
N      -1.46650334     -0.51669622     -0.26607541
C      -0.37284708      0.36226193     -0.21904592
N      -0.36006493      1.53054512     -0.71802382
C       0.89410215     -0.23884749      0.39988026
C       1.41270667     -1.39420669     -0.46411833
N       1.95756734      0.72672527      0.62368931
H      -3.29048396     -1.06955634      0.43381305
H      -2.51551970      0.40449543      1.27058161
H      -1.26619319      1.76860787     -1.12103965
H       0.60364833     -0.64883957      1.37342112
H       0.64693900     -2.15302525     -0.61492780
H       2.27940857     -1.84395640      0.01795207
H       1.71964269     -1.02196231     -1.44395306
H       1.61784015      1.48064935      1.21085427
H       2.18701780      1.17142465     -0.25976462
