16
b3lypvtz=-202021.42939065
C      -3.53990766      0.21419145      0.23582964
N      -2.42650214     -0.41231391      0.20903631
N      -1.33918175      0.20282771     -0.26829698
C      -0.08444319     -0.39052810     -0.12753876
C       1.07562753      0.25919636     -0.27095266
N       2.33906107     -0.34330418     -0.34970099
C       3.39838474      0.25317450      0.45453124
H      -3.65195221      1.25050808     -0.09140350
H      -4.40919655     -0.31672184      0.59510039
H      -1.39415409      1.18926611     -0.50027323
H      -0.13657955     -1.45531092      0.05658171
H       1.09010058      1.33558516     -0.41614198
H       2.29259449     -1.34656525     -0.23707069
H       4.34085485     -0.25191690      0.24385461
H       3.21110938      0.21386726      1.53653825
H       3.51522649      1.30168546      0.17430364
