17
b3lypvtz=-220270.03284637
C       2.04109128      0.04375282     -0.21842534
N       0.85319845     -0.73119687      0.10580071
C       0.15494727     -0.43792465      1.35168383
C      -0.47660438     -0.11500635      0.04138269
C      -0.68642231      1.32382733     -0.37563391
C      -1.49647210     -1.07704140     -0.51581237
F      -2.77943353     -0.74260258     -0.06829644
H       2.90855681     -0.46663869      0.20203762
H       2.16704794      0.08017226     -1.30133052
H       2.03541418      1.07121828      0.16514599
H       0.51000357      0.40226117      1.94165943
H      -0.17189764     -1.29276789      1.93279575
H      -0.57571437      1.43681581     -1.45728468
H      -1.69869651      1.63194107     -0.11296461
H       0.00665508      2.00576167      0.11210494
H      -1.27745139     -2.09460217     -0.19436645
H      -1.51422238     -1.03806982     -1.60849664
