14
b3lypvtz=-229594.7110469
C       0.25252741      1.39087208      0.33511306
C       0.32844297      0.05912291      0.17376405
N      -0.74340092     -0.84114665      0.37302578
C      -1.93525542     -0.65160612      0.07518068
F      -2.44149953      0.44856544     -0.52335694
N       1.47155200     -0.64529883     -0.15589749
C       2.76002626      0.00500461     -0.19776644
H      -0.69180243      1.87243751      0.51952608
H       1.13501553      2.00900847      0.29177047
H      -2.71981393     -1.37363821      0.26822524
H       1.45699468     -1.59798529      0.16929618
H       3.51946038     -0.73078769     -0.45562736
H       3.03575678      0.47575283      0.75530901
H       2.76739023      0.77962195     -0.96719233
