14
b3lypvtz=-229609.69832002
C       2.67000381     -0.31728847      0.06445898
C       1.21673962     -0.66204221      0.10216876
C       0.21387623      0.19874051     -0.03519752
F       0.47853249      1.51782220     -0.21154133
C      -1.24320952     -0.07900160      0.01965220
N      -2.13657821      0.81293738      0.19789452
N      -1.59571283     -1.41645240     -0.06892088
H       3.18137554     -0.88334583     -0.71838154
H       2.82959858      0.74280327     -0.11780340
H       3.15260988     -0.58183737      1.00883320
H       0.94539039     -1.69272894      0.28714860
H      -1.71060542      1.72653779      0.32370319
H      -1.08182493     -1.97007691     -0.73549025
H      -2.59534663     -1.54407540     -0.12475253
