11
b3lypvtz=-267221.92542883
C      -1.94429646      0.04125800     -0.68400925
C      -0.82237845      0.13393110      0.01627145
F      -0.83412452      0.61429409      1.26934356
N       0.44766417     -0.22517337     -0.40611371
C       1.65031969     -0.15186395      0.27381763
N       1.99388160      0.22884187      1.40977516
F       2.59703211     -0.62085888     -0.56968376
H      -2.87579001      0.35437531     -0.24341159
H      -1.93836605     -0.34401215     -1.69113113
H       0.50815998     -0.59242497     -1.34152559
H       1.21799793      0.56163296      1.96656722
