12
b3lypvtz=-202934.05997396
C      -2.14762355     -0.35134580     -0.29109574
C      -0.91505431      0.14702886     -0.09705477
C      -0.78209877      1.53537627      0.25516591
N      -0.63971131      2.64346021      0.53800039
C       0.30733553     -0.63332573     -0.22139577
C       1.53278670     -0.13659686     -0.02625858
O       2.63748842     -0.91199259     -0.15616251
H      -3.02780260      0.26458235     -0.18839556
H      -2.28479432     -1.39029905     -0.55685326
H       0.19815574     -1.67686955     -0.48867305
H       1.69551034      0.90124488      0.24265736
H       3.42600812     -0.39126299      0.01946558
