10
b3lypvtz=-223064.90733856
C      -2.16740372      0.06520263     -0.10673319
N      -1.07414408      0.69657311     -0.23856745
N       0.06968660     -0.03555964     -0.20142053
C       1.29576335      0.56816443     -0.33526615
O       1.51914343      1.73839375     -0.49203287
C       2.38297905     -0.43239852     -0.26205424
N       3.25489520     -1.18124942     -0.20998242
H      -2.23132516     -1.01667352      0.03255845
H      -3.08252651      0.64057351     -0.13534958
H       0.03293183     -1.04302634     -0.07372922
