17
b3lypvtz=-194358.39487136
C       3.84186659     -0.50401659      0.00068704
C       2.47412425     -0.00239961     -0.00013869
C       1.34941621      0.42074831     -0.00070466
C      -0.02400645      0.91231838     -0.00099657
C      -1.04989187     -0.22016144     -0.00092679
O      -2.33820285      0.36139726     -0.00005952
C      -3.37632188     -0.59435695      0.00080813
H       4.33739683     -0.29812418      0.95171012
H       4.43290681     -0.03831287     -0.79063822
H       3.86516493     -1.58395007     -0.15934222
H      -0.20052762      1.54166580      0.87520077
H      -0.20036815      1.54166333     -0.87722864
H      -0.91257860     -0.85379202     -0.88697209
H      -0.91163264     -0.85432376      0.88457643
H      -3.33413750     -1.23520391      0.89065286
H      -4.31922355     -0.05036883      0.00167222
H      -3.33572651     -1.23513984     -0.88915416
