15
b3lypvtz=-191185.72065108
C       4.15366434     -0.54746546      0.20179863
C       3.01904291     -0.15539087      0.24797811
C       1.69252724      0.36220907      0.36936536
N       0.74558791     -0.01069121     -0.38817942
C      -0.56109031      0.57775524     -0.17446462
C      -1.61293680     -0.51086037      0.05036886
N      -2.93751957      0.10055315      0.17502494
H       5.15085470     -0.90692899      0.14315921
H       1.54869246      1.10766277      1.16228579
H      -0.82339029      1.12748463     -1.08532171
H      -0.58397409      1.28859923      0.66206479
H      -1.38816697     -1.02824854      0.98553240
H      -1.52475616     -1.25126424     -0.75422813
H      -3.61323821     -0.57948822      0.49980209
H      -3.26539715      0.42587381     -0.72728631
