14
b3lypvtz=-180316.19393249
C       0.95945881     -1.43801876      0.33352110
C       1.23836827     -0.04160959     -0.24010181
C       0.51100609      1.00108765      0.61662162
C      -0.80959052      0.24412305      0.85438201
C      -0.49950487     -1.03773222      0.07276524
N      -0.04531240     -0.13476745     -1.09826379
C      -0.60932712      1.07766594     -0.37087465
H       1.28502991     -2.22117711     -0.35130417
H       1.27117547     -1.66136343      1.35368726
H       2.17023587      0.22246331     -0.73317494
H       0.89109954      1.74688370      1.29882754
H      -1.43579949      0.41317382      1.71773501
H      -1.28990620     -1.76087562     -0.11038039
H      -1.15793336      1.89434671     -0.81704002
