17
b3lypvtz=-192000.16631421
C       0.35483011      1.91298176     -0.52434231
C       0.01837176      0.79603808      0.47425084
C      -1.47271312      0.40025790      0.49568335
C      -1.51242162     -0.93086519     -0.29863907
N      -0.14037060     -1.43833676     -0.34607310
C       0.64893148     -0.53159982      0.07850093
N       2.00497221     -0.71724792      0.21168280
H       1.42824380      2.11016570     -0.57063306
H       0.02147457      1.65096102     -1.53046505
H      -0.13583991      2.84413178     -0.23752203
H       0.36816477      1.09745383      1.46481797
H      -1.80298895      0.23525059      1.52169233
H      -2.11418833      1.17050598      0.06655004
H      -2.16790683     -1.66867324      0.16860837
H      -1.88297569     -0.79048011     -1.31958733
H       2.37791759     -1.51601438     -0.27703903
H       2.58845477      0.10121678      0.18465637
