15
b3lypvtz=-214510.25562688
C      -2.10100105      0.10694310     -0.83811969
C      -1.42729363     -0.14726851      0.44923191
O      -1.59031609     -1.19900109     -0.53544808
C      -0.07031774      0.31943208      0.80114047
C       1.07815599      0.06151686      0.13830245
N       2.27960662      0.72035089      0.41728385
N       1.22719907     -0.88206171     -0.86936626
H      -3.18382640      0.17143568     -0.89086597
H      -1.56004087      0.64580109     -1.60960067
H      -2.08871307     -0.27587618      1.30273971
H      -0.01361877      0.92747568      1.69488313
H       2.22731068      1.34756567      1.20471826
H       3.06819125      0.09175597      0.49402986
H       0.35722674     -1.31619447     -1.14659850
H       1.79743726     -0.57187506     -1.64235430
