17
b3lypvtz=-171051.07483986
C      -1.26677888      1.32003020     -0.57469422
C      -0.47361164      0.61786407      0.51840832
C       1.06251942      0.75140179      0.55815844
C       1.69976753      0.05954504     -0.59966082
C       1.20115155     -0.78361806      0.55338893
C      -0.28246767     -0.90652577      0.48754416
C      -1.12431081     -1.92819877      0.52461589
H      -2.31552107      1.01797900     -0.54698653
H      -1.22985029      2.40395598     -0.44548884
H      -0.88225681      1.08502904     -1.56779242
H      -0.88293824      0.88795690      1.49554015
H       1.60420931      1.46032939      1.16761614
H       2.77700499      0.14869373     -0.65665217
H       1.20868838      0.00633904     -1.56355831
H       1.87268505     -1.41326824      1.11975518
H      -0.77178455     -2.95009429      0.59115940
H      -2.19650627     -1.77741905      0.50044669
