17
b3lypvtz=-191979.94351619
C       2.91871472      0.30338071     -0.17142080
C       1.59887193     -0.12214340      0.38480750
N       0.51973819     -0.01886136     -0.26279960
C      -0.71327584     -0.47245965      0.35450642
C      -1.22946215     -1.72567224     -0.36897547
C      -1.76588938      0.62169482      0.30704627
N      -1.67630449      1.76159960     -0.22829901
H       3.37573392      1.06040011      0.47141087
H       3.60990255     -0.54338629     -0.19832149
H       2.80108244      0.70417544     -1.17572721
H       1.61379240     -0.53813950      1.40365852
H      -0.56147264     -0.72649106      1.41671132
H      -1.34078141     -1.52354872     -1.43415287
H      -2.19751511     -2.03059887      0.03118862
H      -0.53058953     -2.55277501     -0.24447100
H      -2.70656270      0.35567718      0.79769719
H      -0.75233089      1.86722325     -0.65596727
