13
b3lypvtz=-216166.89384075
C      -2.24530518     -0.15676919      0.68118456
C      -1.79215355      0.42949074     -0.42391012
C      -0.38307433      0.47578194     -0.90152922
O      -0.14332424      1.06412967     -1.94956447
C       0.66757560     -0.17993087     -0.10799624
C       1.93420479     -0.14013982     -0.53310790
O       2.94312795     -0.72118084      0.14867220
H      -1.60060961     -0.68203867      1.37264669
H      -3.29697882     -0.12952777      0.93474293
H      -2.47364427      0.94587333     -1.09010877
H       0.43035685     -0.69252998      0.81242941
H       2.18494766      0.37130416     -1.45586765
H       3.77497714     -0.58436271     -0.31419142
