14
b3lypvtz=-226992.31338278
C      -1.46652339     -0.34319030     -0.61009464
C      -0.24826104      0.01960952      0.20199489
C      -0.28025930      1.14022958      1.15675849
O      -0.33707758     -0.21606020      1.60985448
C       1.09267545     -0.35644421     -0.37133481
N       2.07047592     -0.86610052      0.24059246
O       1.16576583     -0.07334028     -1.69402475
H      -1.50290595     -1.41995211     -0.78241441
H      -1.44372495      0.15392223     -1.57881281
H      -2.36872430     -0.04826293     -0.07625160
H      -1.19890236      1.70694896      1.27125859
H       0.63685293      1.66757769      1.39603619
H       1.83002858     -1.02179183      1.21676699
H       2.05058016     -0.34284558     -1.98042908
