12
b3lypvtz=-247160.25869332
C      -1.29432471      0.21723782     -0.08278242
N      -2.47862486     -0.22008813     -0.22374939
N      -0.19197782     -0.53515073      0.29784511
C       1.15066791     -0.24739185      0.50381796
N       1.90996760     -1.20178481      0.85972374
O       1.46702757      1.04796825      0.28941640
O      -1.02375664      1.51410768     -0.30809947
H      -2.56854103     -1.21080771     -0.02817191
H      -0.38081095     -1.50875670      0.46868160
H       2.87391941     -0.91404818      0.99042453
H       2.40982363      1.15700870      0.45420202
H      -1.87337013      1.90170565     -0.56005937
