17
b3lypvtz=-191949.60706641
C       1.87960402      0.43894453      0.11498197
C       1.04596781      0.64546564     -1.14086528
C       0.53233837     -0.17984617     -0.00201630
C      -0.76288165      0.07661629      0.80292596
C      -1.17043826     -1.34770541      0.36089986
N       0.24008221     -1.61689508     -0.03463620
N      -1.68278428      1.14312406      0.48753166
H       2.00666395      1.28034441      0.78525763
H       2.73973412     -0.21434573      0.04553608
H       0.61381151      1.62438875     -1.31179112
H       1.36150543      0.13418397     -2.04204462
H      -0.54995784      0.11321804      1.87181631
H      -1.87519110     -1.31117855     -0.47656352
H      -1.56048297     -2.01998185      1.12559735
H       0.34743106     -2.05316323     -0.94265963
H      -1.37808722      2.02960590      0.86978498
H      -1.78731515      1.25722443     -0.51375510
