9
b3lypvtz=-258823.77803124
C      -0.51975025     -0.12493077      0.17774896
C       0.77741613      0.19601772     -0.10505953
O       0.92934500      1.50081982      0.02637603
N      -0.37843985      2.01752041      0.42083619
N      -1.15529817      1.02584974      0.48637313
O       1.84203343     -0.52054214     -0.46454982
O      -1.07830935     -1.36118636      0.15700914
H       1.59085621     -1.45103119     -0.52165845
H      -2.00785313     -1.28251725      0.39983005
