14
b3lypvtz=-224568.88852401942
C      -0.96539073      0.42227062     -0.59886378
C       0.24731200     -0.13151173      0.14216873
C       1.44313059     -0.27249679     -0.75551115
N       2.58262206      0.24402916     -0.42311535
N       3.57285733      0.70690339     -0.11997125
O      -0.17618547     -1.39685650      0.67478188
N      -2.06980990      0.62217200      0.33516635
H      -0.69126172      1.38522629     -1.03248801
H      -1.19139694     -0.26292855     -1.42965371
H       0.49281362      0.55486297      0.95959282
H       1.41869914     -0.81562826     -1.68781194
H       0.55305465     -1.78055642      1.17119999
H      -2.88011921      0.99304189     -0.14516419
H      -2.33632542     -0.26852807      0.73734831
