12
b3lypvtz=-228831.90956408
N       2.06269768     -0.99354265      0.53011958
C       2.03126214      0.09313457     -0.12485791
C       1.00872257      1.16017988     -0.10674558
C      -0.32487840      1.06315523     -0.08170328
C      -1.16505953     -0.14983318     -0.13046588
N      -0.99193316     -1.30425778     -0.57705256
F      -2.38069962      0.13300804      0.39507023
H       1.23788656     -1.09746974      1.12465160
H       2.89117032      0.30868696     -0.76375743
H       1.42169304      2.16379696     -0.14262830
H      -0.90186155      1.97860220     -0.03678000
H      -0.05733906     -1.43123150     -0.95394848
