17
b3lypvtz=-194394.20298413
C      -0.93365405      1.69024744     -0.27068641
C      -1.02148915      0.37402610     -0.06436271
C      -2.30001281     -0.29533231      0.35337530
C       0.15627631     -0.53965356     -0.23187537
O       0.01168743     -1.73417193     -0.04977569
C       1.53190141      0.00797427     -0.57992493
C       2.32640221      0.37018172      0.68504191
H      -1.79384222      2.33488395     -0.14056421
H      -0.01576155      2.17291063     -0.57261240
H      -2.58972621     -1.05862388     -0.37022666
H      -2.17116336     -0.81349925      1.30485841
H      -3.10765749      0.42867521      0.44987991
H       2.04775945     -0.78656603     -1.11857206
H       1.46579447      0.87075919     -1.24219283
H       3.33057535      0.70383687      0.42183611
H       1.84261582      1.16932422      1.24785653
H       2.41848838     -0.49726263      1.33906211
