14
b3lypvtz=-250266.82178475
O      -2.46168340     -1.22931705     -0.22860930
C      -2.09291003      0.13704959     -0.31988785
C      -0.64495525      0.32469160     -0.71197447
O       0.14834964     -0.22220302      0.36175284
C       1.48088620     -0.19951445      0.21408496
N       2.04942623      0.29582381     -0.80573428
O       3.45476257      0.18234651     -0.68260052
H      -1.88513778     -1.64386792      0.42183074
H      -2.72567341      0.57943532     -1.09039614
H      -2.28881725      0.66504480      0.62106116
H      -0.39826269      1.38060688     -0.84451181
H      -0.41047092     -0.20823187     -1.63465656
H       2.01107017     -0.64138431      1.05187028
H       3.76331593      0.57952010     -1.50212904
