18
b3lypvtz=-181887.10134395
N       1.31639456      1.45729098      0.01465344
C       0.63230992      0.18189933     -0.09472878
C      -0.80616155      0.24297971     -0.53454044
C      -1.90417761      0.57727855      0.44374563
C      -1.84301960     -0.78903794     -0.18824704
C       1.50335979     -0.95077866     -0.56754297
C       1.10357146     -0.85951898      0.88496150
H       1.33105486      1.92638641     -0.88512806
H       0.81731746      2.06677622      0.65432072
H      -0.91979201      0.68641829     -1.51948474
H      -1.63341645      0.64994512      1.48903807
H      -2.68862606      1.25521156      0.13672076
H      -1.56227772     -1.62060009      0.44241742
H      -2.57731169     -1.03775383     -0.94205936
H       1.04272499     -1.72297646     -1.16820905
H       2.52644562     -0.71379234     -0.82200269
H       1.85881960     -0.54175069      1.58885347
H       0.40273541     -1.58821618      1.26619512
