17
b3lypvtz=-191966.42703115
C       1.55419913     -1.61030516     -0.29267499
C       0.61362749     -0.73956036      0.49706982
C       0.61360270      0.73956203      0.49707523
C       1.55414483      1.61034668     -0.29266065
N      -0.42446677     -0.00001309     -0.26194446
C      -1.72370907     -0.00002199      0.30902890
N      -2.79955364      0.00001497     -0.34650862
H       1.85939457     -1.13343153     -1.22166465
H       2.44858958     -1.83454827      0.29281245
H       1.07244008     -2.55659929     -0.54496675
H       0.26569737     -1.19011977      1.42401416
H       0.26565792      1.19010148      1.42402399
H       1.85937011      1.13348698     -1.22164759
H       2.44851976      1.83462694      0.29283629
H       1.07234824      2.55662077     -0.54495597
H      -1.77601982      0.00003450      1.40483674
H      -2.58996749      0.00000310     -1.34734189
