16
b3lypvtz=-227773.06602912
C       1.78227279      1.27530731      0.36814834
C       1.36358032     -0.00986323     -0.33743761
N       2.34512342     -1.06144840     -0.05990364
C      -0.05073369     -0.44283977      0.04575594
O      -0.98672793      0.57293982     -0.39321042
C      -2.28134562      0.33555941     -0.14961874
O      -2.73145098     -0.63225598      0.39800605
H       1.08594569      2.08509105      0.15492376
H       1.80646656      1.12740546      1.45178690
H       2.77971360      1.57104283      0.04579108
H       1.37559083      0.16513648     -1.41699081
H       2.10259749     -1.92683375     -0.52829617
H       2.38909240     -1.25946199      0.93411293
H      -0.31462966     -1.38818409     -0.43039835
H      -0.14618594     -0.57074690      1.12654005
H      -2.87803927      1.17341975     -0.53333330
