18
b3lypvtz=-205227.25139101
C      -1.62522680      1.33166583     -0.56694889
C      -1.10392402      0.24147818      0.38699824
C      -2.07017029     -0.94270317      0.46628823
C       0.27631412     -0.20182939     -0.09269489
O       0.41648452     -0.98357892     -1.00661566
C       1.48211875      0.39771844      0.62838048
N       2.78850581      0.08632846      0.08223161
H      -0.95441466      2.19162418     -0.60979330
H      -1.73016977      0.93208381     -1.57639612
H      -2.60168907      1.68729296     -0.23521060
H      -0.99140624      0.68461125      1.38130135
H      -3.06000897     -0.60682729      0.77902996
H      -2.15784723     -1.42622773     -0.50605198
H      -1.72636695     -1.69132818      1.18176406
H       1.35124536      1.48324361      0.68159864
H       1.42714055      0.05739675      1.67003114
H       2.85839449     -0.91492282     -0.06520389
H       2.87778739      0.49487603     -0.84141537
