16
b3lypvtz=-202034.07835012
C      -3.19843842      0.15286490     -0.01473390
N      -2.12019459     -0.52088669     -0.01323523
N      -0.96346250      0.25384178     -0.00137015
C       0.08592840     -0.49529187     -0.00334488
N       1.34888621     -0.01811788      0.00128723
C       1.62548154      1.40640023      0.01683377
C       2.48657495     -0.91123077      0.01887659
H      -3.20795257      1.24245375     -0.00781271
H      -4.13536891     -0.39090499     -0.02323679
H      -0.00611814     -1.58039158     -0.01110431
H       2.23056399      1.68666603     -0.85006605
H       0.68483906      1.94694741     -0.00952843
H       2.17545506      1.68092454      0.92191383
H       3.08965963     -0.76316713      0.92048515
H       2.14788887     -1.94506673     -0.00198232
H       3.13110943     -0.74107801     -0.84905179
