19
b3lypvtz=-195153.59119192
C      -1.36527641      1.00808364     -0.88517169
C      -0.63613020      0.01765315      0.02289875
C      -1.62708345     -0.89218035      0.74606384
C       0.34232814      0.72192219      0.99475684
C       1.70017557      0.61090602      0.29369053
C       1.56297941     -0.73518052     -0.40934324
O       0.20373453     -0.80498132     -0.82932674
H      -0.65848224      1.68544037     -1.36624961
H      -2.08471832      1.60298269     -0.31915642
H      -1.90178710      0.47045850     -1.66758214
H      -2.26615908     -1.40668621      0.02745930
H      -2.26386694     -0.31775982      1.42234631
H      -1.09710205     -1.64468874      1.33134909
H       0.37014557      0.19174229      1.94896906
H       0.04556154      1.75032701      1.19790608
H       2.54350131      0.64881914      0.98313550
H       1.82695024      1.40877445     -0.44024006
H       1.79648296     -1.55976127      0.27790683
H       2.19560953     -0.83973322     -1.29142222
