16
b3lypvtz=-204453.31247471
C      -1.18586093     -1.41299883     -0.33162577
N      -0.73196614     -0.03693360     -0.21720359
C      -1.47485303      0.98177667     -0.74647547
O      -1.29049295      2.16638270     -0.57182891
C       0.33496628      0.23496548      0.70771928
C       1.46057336      1.13242020      0.30135320
C       1.70034148     -0.34563769      0.43601289
H      -2.00264072     -1.46833886     -1.04973509
H      -1.54552939     -1.79510257      0.62853506
H      -0.37850840     -2.06089125     -0.67480324
H      -2.28659573      0.59969455     -1.39201486
H       0.02257772      0.27985007      1.74662233
H       1.42067208      1.55134352     -0.69207663
H       1.85916605      1.79883641      1.05246481
H       2.26945304     -0.71272729      1.27847775
H       1.82849727     -0.91283952     -0.47552175
