20
b3lypvtz=-182657.91527562
C       2.31094813     -0.94707336      0.25192476
C       1.31095726     -0.12612754      0.54649135
C       0.32236332      0.43070261     -0.45331464
C       0.35491070      1.96236246     -0.46296534
N      -1.05617768     -0.07119184     -0.28567656
C      -1.69175805      0.22310564      0.98957647
C      -1.20030851     -1.47278059     -0.64225928
H       2.49328855     -1.27619473     -0.76523889
H       2.98925770     -1.31729119      1.01012190
H       1.17054877      0.18090580      1.57955179
H       0.63023137      0.08949743     -1.44565850
H       1.33760785      2.31230925     -0.78029340
H      -0.39729063      2.34792615     -1.15178490
H       0.16401937      2.38276015      0.52564549
H      -1.27709039     -0.34362075      1.83888674
H      -1.61779064      1.28466528      1.22018242
H      -2.75269142     -0.02371942      0.92052356
H      -2.26009990     -1.73362280     -0.65244332
H      -0.80331565     -1.64298678     -1.64431234
H      -0.68843616     -2.16365178      0.04661870
