12
b3lypvtz=-223814.99983436
C      -0.92487041     -1.32669844      0.73615451
C       0.01274136     -0.24572494      0.30526249
N       1.23155975     -0.45716139      0.05476941
C       2.14377741      0.51319310     -0.36623224
O       2.38240987      0.76887489     -1.51608978
N      -0.45914767      1.12532976      0.18050893
N      -1.69160157      1.22639521      0.21497733
H      -1.75241032     -1.41082800      0.03150683
H      -0.38577517     -2.26751238      0.79276596
H      -1.36440274     -1.08922072      1.70593561
H       2.71979204      0.93462211      0.47718235
H      -1.91207255      2.22873081      0.12520579
