16
b3lypvtz=-204446.53047782
N      -2.23497504      0.55864419      0.44245249
C      -1.15709099     -0.25902567     -0.07260922
C      -0.03693718     -0.62743991      0.92825979
C       0.98993763     -0.49979625     -0.25129952
C       2.28714257      0.16147303      0.09886571
O       2.56581854      1.31000330     -0.14087178
C      -0.07035167      0.29320133     -1.04270955
H      -2.95918362      0.69434352     -0.25281557
H      -1.89698859      1.47748330      0.70621852
H      -1.59725134     -1.16915961     -0.48408801
H      -0.10625058     -1.58154464      1.44706564
H       0.10386619      0.16746358      1.66267865
H       1.19770479     -1.48459760     -0.67606705
H       3.00501106     -0.48364983      0.64992494
H       0.08295023      1.36494674     -0.90942215
H      -0.17320199      0.07765453     -2.10558287
