20
b3lypvtz=-205964.55892721
C      -2.38857772     -1.27333831     -0.19364817
N      -1.83250461     -0.06248153      0.39677107
C      -0.60749025      0.43452856     -0.23429196
C      -0.47540662      1.93689196     -0.00936342
C       0.59174121     -0.31551116      0.34564927
O       1.74942200      0.02217803     -0.39625344
C       2.91460945     -0.61661968      0.07391278
H      -1.72485194     -2.12177050     -0.02182908
H      -2.55826251     -1.20085467     -1.27936252
H      -3.33915826     -1.50638170      0.28675073
H      -2.53141318      0.66819463      0.38585865
H      -0.61274598      0.24401975     -1.31942318
H      -0.52375600      2.16551234      1.05787210
H       0.47521160      2.29773755     -0.39784322
H      -1.27879300      2.47948440     -0.51268402
H       0.42219069     -1.39910736      0.30039146
H       0.71398358     -0.04492400      1.40346926
H       3.74133466     -0.29606363     -0.55801516
H       2.82700095     -1.70940888      0.01693081
H       3.13452793     -0.34283382      1.11375103
