17
b3lypvtz=-191963.0706524
N       3.22010468      0.51269608      0.01795500
C       2.18374834     -0.49011985     -0.26231479
C       0.87701475     -0.08131801      0.35658321
N      -0.22555619     -0.21606643     -0.24495646
C      -1.42420401      0.16688445      0.41434443
C      -2.52345823      0.74171081     -0.44543326
C      -2.66119310     -0.64393113      0.11076288
H       3.50241579      0.46993938      0.99069426
H       4.04974464      0.31674270     -0.52839125
H       2.03936193     -0.56473550     -1.33930183
H       2.43832588     -1.49911706      0.10023182
H       0.93606542      0.33442087      1.37373146
H      -1.32636743      0.56290421      1.42408657
H      -2.30354153      0.84100786     -1.49830830
H      -3.12628724      1.53356519     -0.02342351
H      -3.36003631     -0.81362347      0.91788728
H      -2.53291640     -1.47286010     -0.56992648
