16
b3lypvtz=-181114.01055063
C      -1.81521780      0.94675826      0.43345255
C      -0.70411116      0.48635629     -0.47661866
C      -0.54766868     -0.95472307     -0.85667327
C       0.48276340     -0.31383722      0.05716736
C       1.78483187     -0.01721432     -0.49329909
C       2.88249042      0.22783708     -0.91821201
N       0.43120370     -0.72380592      1.44497673
H      -2.74133814      1.07023048     -0.13246855
H      -1.99233253      0.22840979      1.23131211
H      -1.57654146      1.90936445      0.89124956
H      -0.42878978      1.19405576     -1.24864864
H      -1.20194947     -1.66987323     -0.37645921
H      -0.24208518     -1.20454739     -1.86226469
H       3.84974895      0.44401549     -1.29706605
H       0.87999181     -0.03081840      2.03350963
H       0.93900404     -1.59220805      1.57004225
