16
b3lypvtz=-204418.86330273
C      -0.85980881      1.33377435      0.88939478
C      -0.50186709      0.07371174      0.13581474
C      -0.98544837     -0.14615510     -1.24529315
N      -1.62602352     -0.84729212     -0.11414960
C       0.80918677     -0.53042700      0.54878559
C       2.04206732     -0.37763583     -0.22905248
O       1.31403647     -1.61281502     -0.23722240
H      -1.85148192      1.67544455      0.59741532
H      -0.87292402      1.15150151      1.96674014
H      -0.14123521      2.13157124      0.68842482
H      -0.36734631     -0.73134847     -1.91404542
H      -1.59795901      0.61098952     -1.71949217
H      -1.28902690     -1.80599152     -0.09609862
H       0.91013212     -0.68812838      1.62133351
H       3.00588524     -0.41541106      0.26794681
H       2.01211323      0.17811158     -1.16040187
