18
b3lypvtz=-205216.59116594
C       2.41595947     -0.67723238     -0.33144720
C       1.58504089      0.50794103      0.06311914
C       0.24808540      0.60268728      0.06808564
N      -0.42630472      1.78626677      0.39241962
C      -0.68704939     -0.53896025     -0.30837363
C      -1.04061517     -1.41302097      0.89039528
O      -1.93151637     -0.05588973     -0.82969510
H       2.94404089     -1.10520774      0.52726971
H       1.82974988     -1.48059813     -0.77632060
H       3.18479138     -0.39440171     -1.05652965
H       2.14517893      1.38171267      0.38665026
H      -1.37917915      1.65787668      0.69470426
H       0.08866023      2.43016996      0.97140961
H      -0.19968455     -1.16010683     -1.06369132
H      -0.14749042     -1.89051265      1.29132247
H      -1.75062392     -2.18357227      0.58885283
H      -1.49709943     -0.81501250      1.68051288
H      -1.74188295      0.56351175     -1.54225219
