19
b3lypvtz=-171828.96886052
C      -2.53358024     -1.06278277     -0.03111284
C      -1.46422711     -0.38277570      0.37393899
C      -0.75309571      0.62420485     -0.43220019
C      -0.11858231      1.83427994      0.23087515
C       0.76082552      0.79200516     -0.38483247
C       1.66049079     -0.09132202      0.45165078
C       2.00028469     -1.41872590     -0.22980766
H      -3.01984177     -1.78558113      0.60995093
H      -2.96046912     -0.91655975     -1.01650291
H      -1.08278054     -0.56368128      1.37424835
H      -1.20048574      0.80461336     -1.40235176
H      -0.22540806      2.79476725     -0.25456225
H      -0.16222646      1.87547892      1.31207371
H       1.19323505      1.05889030     -1.34349635
H       1.19935824     -0.28390071      1.42294670
H       2.58350982      0.45711652      0.66453897
H       2.67382871     -2.01795583      0.38524506
H       1.09974530     -2.00595964     -0.41540324
H       2.49067194     -1.25109158     -1.19129596
