18
b3lypvtz=-181894.75040206
N       3.02926790     -0.10106440      0.41242690
C       1.91177800      0.31474259     -0.44987050
C       0.74876803     -0.61641229     -0.28014759
C      -0.49566868     -0.24718397     -0.01144543
C      -1.80053916     -1.01418355      0.12882925
C      -2.55905345      0.33715714     -0.02665642
C      -1.20610511      1.09352304      0.13027962
H       3.83401355      0.49563150      0.26043340
H       2.76843434     -0.00337776      1.38701669
H       2.27149295      0.26022421     -1.48306356
H       1.58366489      1.34893770     -0.28323089
H       0.97855471     -1.67346386     -0.38245780
H      -1.92692988     -1.45615201      1.12014240
H      -2.00164718     -1.78482617     -0.61597881
H      -2.98936490      0.46043147     -1.01935239
H      -3.32499282      0.55337678      0.71598818
H      -0.98143694      1.85749804     -0.61414796
H      -1.08340025      1.53776653      1.12131091
