18
b3lypvtz=-181900.37939422
C      -0.74101665      1.64009570      0.53424153
C      -0.48135798      0.15314725      0.74877117
C      -1.62012499     -0.83344656      0.34329587
C      -0.57887778     -1.72660851     -0.39187174
C       0.42920050     -0.60691470     -0.21125467
C       1.62362724     -0.37996445     -0.75135664
N       2.50351756      0.66487510     -0.43958482
H      -0.98400777      1.84729151     -0.50983570
H      -1.58008782      1.97498413      1.14892342
H       0.11944739      2.25607938      0.80739183
H      -0.18530219     -0.01213366      1.79126231
H      -2.32735519     -0.37037160     -0.34559258
H      -2.17660677     -1.29652362      1.15718578
H      -0.33278600     -2.63324785      0.16773442
H      -0.82646877     -2.01755687     -1.41423692
H       2.02852121     -1.09083869     -1.46439301
H       3.05001382      0.99360472     -1.22130571
H       2.07946421      1.43752871      0.05062546
