16
b3lypvtz=-204467.08087343
C       2.23951008     -0.52786110      0.63552274
C       1.51532433      0.12161936     -0.55489390
C       0.13549311      0.61438864     -0.19629021
N      -0.19946934      1.81895395      0.03552106
C      -0.96586019     -0.43538399     -0.09514575
C      -2.33736028      0.01972581      0.32940784
O      -0.71449331     -1.59083349     -0.36364031
H       3.24095742     -0.84288451      0.34059472
H       2.33786912      0.17285194      1.46629964
H       1.70021091     -1.40647319      0.98605269
H       1.43206193     -0.60957969     -1.35987476
H       2.09578351      0.96896273     -0.92649225
H       0.59720050      2.45052631     -0.06857239
H      -2.71214591      0.78092857     -0.35564290
H      -2.29255343      0.49241260      1.31138254
H      -3.00566544     -0.83720493      0.34990123
