16
b3lypvtz=-204487.33265611
C      -1.82099315     -0.70893209     -0.56059756
C      -0.62693174     -0.27410957      0.27814751
C       0.73458759     -0.86796357     -0.11583643
C       1.75461529      0.20922712      0.29879794
N       0.96922538      1.42894946      0.19867012
C      -0.38281565      1.24044892      0.23319834
O      -1.22521290      2.11417690      0.24471194
H      -1.63735287     -0.52864309     -1.62169529
H      -2.02895773     -1.77176563     -0.42852385
H      -2.70714735     -0.14322205     -0.27479231
H      -0.83221428     -0.50050227      1.33113335
H       0.93972121     -1.83064104      0.34977750
H       0.77091370     -1.00545697     -1.19856128
H       2.62140064      0.23914927     -0.36209746
H       2.11614584      0.04695288      1.32044972
H       1.35521603      2.35233174      0.30711776
