19
b3lypvtz=-195131.18199402
C       3.02572668     -0.68469117      0.04802234
C       2.26797305      0.59979247     -0.29279576
C       0.87486217      0.70524956      0.34017079
C      -0.13824415     -0.31938369     -0.18357547
C      -1.49430078     -0.16124407      0.45279609
C      -2.56319555      0.63099120     -0.16012386
O      -2.59987877     -0.79963904     -0.19697239
H       2.51843913     -1.57257756     -0.33185888
H       4.02770949     -0.67294547     -0.38387628
H       3.13311933     -0.80145150      1.12916430
H       2.17626239      0.69238768     -1.37952983
H       2.86145061      1.45775285      0.03414372
H       0.96722856      0.60318543      1.42696704
H       0.48128128      1.71029251      0.16210453
H       0.21567592     -1.33585864      0.00727141
H      -0.24589990     -0.22277681     -1.26742116
H      -1.51324616     -0.26604998      1.53622838
H      -3.32046387      1.09959123      0.46062896
H      -2.38321144      1.11236000     -1.11704293
