16
b3lypvtz=-204427.38769263
C       2.02209959     -0.86997682      0.86227433
C       1.71786972      0.32903854      0.38509438
C       0.34682703      0.93691652      0.27987469
O       0.21906242      1.48787729     -1.02527001
C      -0.80405916     -0.00961048      0.57989516
C      -1.36484653     -0.91178483     -0.44811520
N      -2.05874595      0.34332797     -0.10243384
H       1.26977745     -1.56404455      1.21419890
H       3.04966708     -1.20469106      0.91572032
H       2.50743611      0.98454203      0.03213191
H       0.29047310      1.75275807      1.01990330
H      -0.72806830      1.65565350     -1.14490619
H      -0.87371715     -0.33099520      1.61315848
H      -1.80335519     -1.84738209     -0.12365668
H      -0.92630814     -0.92264244     -1.43662363
H      -2.86391207      0.17101354      0.48765409
