14
b3lypvtz=-203639.08787689128
C       1.84224573      0.59790786      0.02056767
C       0.57674852     -0.13857658     -0.25563800
C      -0.79195944      0.48982976     -0.51415522
C      -1.66358959     -0.25094112      0.55408787
O      -1.03298966     -1.57820996      0.79441923
C       0.14831100     -1.41028192      0.16333512
N       0.72421862     -1.75261568     -0.89243598
H       2.20176225      1.12587788     -0.86546159
H       1.69140872      1.34407263      0.80768342
H       2.61880753     -0.09289432      0.34394150
H      -0.80309645      1.56870444     -0.36137902
H      -1.15347495      0.27535076     -1.52144807
H      -1.68184067      0.28069251      1.50505171
H      -2.67655161     -0.45891625      0.22143137
