20
b3lypvtz=-182676.61694675
C       1.88567251     -1.42931778     -0.57987487
C       1.16403406     -0.78946011      0.61811569
C      -0.09109489     -0.03447878      0.24185146
C      -0.06755936      1.27240765     -0.04322105
N       1.04393044      2.12445861      0.02814549
C      -1.35991427     -0.85448914      0.20998108
C      -2.63273560     -0.15163702     -0.25518811
H       2.76366671     -1.99375388     -0.25845566
H       2.21470914     -0.67138880     -1.29347833
H       1.22674179     -2.11523994     -1.11482521
H       1.85916014     -0.13381374      1.15073052
H       0.90362960     -1.57719716      1.33148614
H      -0.98135569      1.79242500     -0.29870083
H       0.98517315      2.92730215     -0.57763001
H       1.94112476      1.67440545     -0.06130667
H      -1.53151852     -1.26768241      1.21248228
H      -1.19324772     -1.73220270     -0.42715024
H      -2.89066200      0.68689890      0.39438207
H      -3.47484872     -0.84510738     -0.24520932
H      -2.53085253      0.23148809     -1.27246542
