17
b3lypvtz=-191947.69324409
C      -1.48288570     -0.19044548     -0.89129766
C      -0.43779473      0.16087540      0.15928306
C       0.38399962     -1.03385386      0.77680098
C       1.66057919     -0.38035989      0.25423733
C       0.89931659      0.73106398     -0.35923542
N       1.51410346     -0.30220409     -1.22026269
N      -0.92648119      1.01973472      1.24084368
H      -2.29805865     -0.76623742     -0.44501966
H      -1.04413609     -0.77900407     -1.69650020
H      -1.91288453      0.71785509     -1.32289247
H       0.31251093     -1.03354580      1.86256952
H       0.17617056     -2.02663484      0.37816581
H       2.63874369     -0.37537591      0.71266907
H       1.15328279      1.77720875     -0.46220941
H       2.37494829      0.08689570     -1.59730497
H      -1.35531133      1.85420519      0.85187335
H      -1.65610289      0.53982254      1.75827970
