15
b3lypvtz=-240216.93212144
C      -1.05852940     -0.84373254      0.85149703
C      -0.02393322      0.16113148      0.39594784
C      -1.40267803      0.15459640     -0.20031181
O      -2.31899490      1.15218841      0.16111097
C       1.15708629     -0.26677439     -0.42784508
O       1.64331666      0.76050849     -1.27326691
O       2.16111311     -0.70790403      0.46251705
H      -1.49304551     -0.68991940      1.82869815
H      -0.93540825     -1.87861943      0.56246082
H       0.18810147      0.96395694      1.09363333
H      -1.50081899     -0.20552544     -1.22062965
H      -2.10995552      1.94978620     -0.33619458
H       0.87202427     -1.06614128     -1.12027409
H       1.90316293      1.50126503     -0.71209366
H       2.91855908     -0.98481646     -0.06524942
