18
b3lypvtz=-181885.19269858
C      -1.62434529      1.14695434      0.01830495
C      -0.70153695     -0.01967898      0.20031865
C       0.26670401     -0.15874613      1.35195217
C       0.79450073     -0.17101176     -0.05882778
N       0.58672632     -1.47670148     -0.70478658
C      -0.88219450     -1.39586897     -0.43741480
C       1.82866708      0.77311296     -0.58835582
H      -1.91144751      1.26570553     -1.02938810
H      -1.15624422      2.07811577      0.34325894
H      -2.54109871      1.02258157      0.60187909
H       0.44271707      0.75240905      1.91095602
H       0.28285756     -1.06357282      1.95321696
H       1.05133940     -2.24414110     -0.22755149
H      -1.44965504     -1.37726654     -1.37036901
H      -1.29179807     -2.17705299      0.21060916
H       1.74568091      0.86630661     -1.67242942
H       2.83667560      0.41545085     -0.35909764
H       1.72245161      1.76340408     -0.14227529
