15
b3lypvtz=-214522.85122295
C       2.76858945     -0.31614513      0.04867867
C       1.34948439      0.18480499     -0.00971106
N       0.94986096      1.38832129     -0.04695020
O       0.50961462     -0.87179955     -0.01662781
C      -0.87902956     -0.80957593     -0.05732119
C      -1.68355217      0.25225352      0.02721591
N      -3.07690083      0.15360285      0.10926091
H       3.47283440      0.51247535      0.03562818
H       2.97079938     -0.97203691     -0.79893525
H       2.92224555     -0.90162857      0.95614730
H       1.74408529      2.02048657     -0.03576134
H      -1.26301711     -1.81815692     -0.12956080
H      -1.27777042      1.24702834      0.09602523
H      -3.45668051     -0.74669456     -0.14693674
H      -3.56383644      0.89510968     -0.37090683
