15
b3lypvtz=-193626.4535891
C      -2.30814783     -0.55613669     -0.45772770
C      -1.14376514     -0.10971939      0.43951154
C      -0.64052116      1.27977727      0.13571055
C       0.67607537      1.24771724     -0.10705058
C       1.13418273     -0.13926350      0.00693892
O       2.44787988     -0.42210976     -0.19987159
C       0.10354449     -0.94736017      0.31676958
H      -3.16987497      0.10290988     -0.33633580
H      -2.62396676     -1.56965710     -0.20570810
H      -2.01112072     -0.54321930     -1.50703688
H      -1.49543570     -0.12487504      1.48126374
H      -1.27745087      2.15200031      0.12362993
H       1.32520216      2.07655934     -0.34763679
H       2.58947629     -1.36838378     -0.09104063
H       0.13323823     -2.01710431      0.46207480
