11
b3lypvtz=-213006.67285973
C       2.43902484      0.29928866      0.00015074
N       1.56542635     -0.62472504      0.00013662
C       0.22633858     -0.32398002      0.00007058
N      -0.74478290     -1.18433525      0.00000808
C      -1.89660570     -0.42419514     -0.00007690
C      -1.56666431      0.88739225     -0.00010269
O      -0.20612807      0.97922972     -0.00010958
H       2.20237953      1.36426896     -0.00005744
H       3.48606046      0.01287356      0.00006648
H      -2.87487564     -0.87265012     -0.00000908
H      -2.11871914      1.80935742     -0.00038882
