17
b3lypvtz=-191972.0772143
C       2.80804897     -0.41560155     -0.01201956
C       1.53070195      0.00389913     -0.00131046
C       1.19523292      1.46690813     -0.00811446
N       0.48841892     -0.91359529      0.01671078
C      -0.90619993     -0.79432279      0.03178165
C      -1.71878097      0.27019766      0.02761622
N      -3.12420556      0.17769180     -0.11093849
H       3.61920410      0.29412988     -0.02409804
H       3.06562760     -1.46730838     -0.00914777
H       0.59616145      1.73548426     -0.88002255
H       0.63326320      1.75219986      0.88331382
H       2.11273547      2.04975235     -0.03213389
H       0.80063340     -1.86874075      0.02752237
H      -1.37211807     -1.77415336      0.01870604
H      -1.35724721      1.28512072      0.04494335
H      -3.46623811     -0.77187326     -0.04261845
H      -3.62018915      0.75332959      0.55730943
