14
b3lypvtz=-226971.29721826
C      -1.68916769     -0.70810818     -0.00669191
C      -0.89422361      0.56642586      0.23214549
N      -1.07072506      1.80688021      0.27575974
C       0.32904061     -0.30779205      0.44292494
O      -0.48926468     -1.49020938      0.20849454
C       1.47924220     -0.22116806     -0.55614571
O       2.34660252      0.86849119     -0.30293404
H      -2.46406974     -0.92121140      0.73528597
H      -2.09876066     -0.83890337     -1.01235624
H      -2.04048604      2.05725492      0.07555079
H       0.71645548     -0.28723734      1.46875919
H       2.00436649     -1.18386713     -0.54197453
H       1.08752149     -0.07345599     -1.56249773
H       2.78346867      0.73290071      0.54367950
