15
b3lypvtz=-214518.78879564
C       2.22741034      1.13026864      0.17848837
C       1.42590326      0.10973274     -0.11745967
N       1.77999462     -1.22401620     -0.28838748
O       0.06488321      0.31036219     -0.26249073
C      -0.76350730     -0.30380147      0.66078143
N      -2.01269920     -0.30744387      0.59669092
C      -2.70816639      0.33208213     -0.50811392
H       1.80963401      2.09666548      0.40812410
H       3.30012754      1.00894756      0.19214830
H       2.77462348     -1.39041501     -0.30409444
H       1.30673771     -1.67730745     -1.05792887
H      -0.23103697     -0.78119860      1.47800783
H      -2.06189868      0.65825324     -1.32547789
H      -3.25087444      1.19907330     -0.12506668
H      -3.45513218     -0.36228468     -0.89562729
