12
b3lypvtz=-247121.97342415
N      -1.08775387     -0.16480841     -0.93970718
C      -0.72765596     -0.71184261      0.25825058
O      -1.46378492     -1.79161645      0.62747195
N       0.18445619     -0.33881728      1.06457801
C       0.94284957      0.79766758      0.95520794
N       1.66661095      1.27213563      0.00926527
O       1.57879607      0.48927277     -1.18210340
H      -0.45773471      0.50511937     -1.35136912
H      -2.05562963     -0.15017672     -1.21046642
H      -1.85585241     -2.19017509     -0.15772861
H       1.03146228      1.37723312      1.86986261
H       2.24433645      0.90590809     -1.73726162
