16
b3lypvtz=-181121.74513201
C       3.85317989     -0.37090250     -0.08856955
C       2.71485310      0.01615684     -0.13115291
C       1.38450273      0.50554497     -0.21137397
C       0.34401334     -0.01219711      0.45081296
C      -1.05844080      0.49797264      0.36992387
C      -2.04320553     -0.54614938     -0.17223929
N      -3.41380154     -0.03280190     -0.10934156
H       4.85458240     -0.71909060     -0.04317252
H       1.22984324      1.36436764     -0.85880438
H       0.51418580     -0.87060025      1.09410659
H      -1.40699180      0.79097409      1.36541612
H      -1.09317018      1.39437264     -0.25620975
H      -1.72378172     -0.84627624     -1.17990747
H      -1.99375131     -1.44123042      0.45291459
H      -4.07392823     -0.74901396     -0.38738916
H      -3.53311237      0.73621253     -0.75937458
