17
b3lypvtz=-191983.20313925
C      -2.17531274     -1.16652982      0.35207515
C      -0.79908205     -0.85286383     -0.24906108
C      -0.34315411      0.58004964     -0.09978015
N      -1.32573058      1.52931724     -0.29619290
C       0.93286929      0.95071864      0.17546003
C       2.11958641      0.11718956      0.30278613
N       2.42451689     -1.01117803     -0.21809993
H      -2.99023681     -0.67277525     -0.18098152
H      -2.36736405     -2.23777064      0.29144154
H      -2.22638102     -0.88046655      1.40412189
H      -0.81182225     -1.10780833     -1.31394452
H      -0.05536185     -1.49671091      0.21606331
H      -2.27165906      1.27683022     -0.06801016
H      -1.09140945      2.47962871     -0.05887045
H       1.10591776      2.00645287      0.36703697
H       2.88497732      0.55182170      0.95234489
H       1.69930930     -1.32711424     -0.86118619
