14
b3lypvtz=-226979.02709331
O       2.29024477      0.00816741     -1.25613394
C       1.27219382     -0.63862918     -1.25632944
C       0.33341758     -0.73450527     -0.08635862
N       0.70845614      0.02394185      1.11423851
C      -0.27402755      1.09117795      0.79649056
C      -0.94818876      0.16368714     -0.24338700
O      -2.16529680     -0.43029206      0.12601521
H       0.95652267     -1.20931004     -2.15470056
H       0.09938271     -1.79286111      0.08154300
H       1.67659203      0.32402006      1.10281372
H      -0.91065095      1.38288263      1.63467763
H       0.15782496      1.98935102      0.34677668
H      -1.11022794      0.58783956     -1.23196549
H      -2.08614268     -0.76546996      1.02641974
