14
b3lypvtz=-201254.19282773897
C      -0.47741327      0.97714041     -0.39582545
C       0.29391106      0.11358898      0.57144643
C      -0.82398458     -0.47557431     -0.26681053
N      -2.05113775     -0.79935440      0.41237544
C       1.70730238     -0.24517531      0.30391114
N       2.51171149      0.59680369     -0.26267692
N       3.19360689      1.34243340     -0.78114649
H      -1.17277764      1.68578693      0.03046498
H       0.01901495      1.30717044     -1.29788298
H       0.02357439      0.24752398      1.61361395
H      -0.49362179     -1.11148103     -1.08529728
H      -2.84584504     -0.70855263     -0.20961531
H      -2.04033835     -1.75291441      0.75455983
H       2.15599729     -1.17739572      0.61288320
