11
b3lypvtz=-233856.97674753
C      -1.19247934     -0.39576911      0.50766930
C      -2.33263861      0.13115152     -0.24522845
N      -3.23271295      0.51735480     -0.84657581
N       0.05422713      0.16283020      0.01770410
N       1.06096828      0.12754275      0.91798358
N       2.22731523      0.25757728      0.54847129
O       2.33240102      0.38007488     -0.87660174
H      -1.29184503     -0.11466113      1.55628609
H      -1.22230487     -1.49033016      0.45690292
H       0.31160513     -0.01428825     -0.94528049
H       3.28546403      0.43851721     -1.00055015
