18
b3lypvtz=-181883.70262086
C      -1.32027366      1.09947010      0.41691594
C      -0.78225169     -0.19070227     -0.15803597
N      -1.86384134     -1.01785967     -0.67053846
C       0.46151245     -0.28493133     -0.98691038
C       1.56793657      0.66074241     -0.51752443
C       1.52265633      0.00134497      0.89728090
C       0.40816851     -0.93051997      0.41635281
H      -2.01249831      0.88843363      1.23680875
H      -1.86957206      1.64796125     -0.34958049
H      -0.53638816      1.74383939      0.80995647
H      -2.42052866     -1.38015419      0.09688404
H      -1.50160709     -1.81971472     -1.17350183
H       0.43167705     -0.76153454     -1.95893560
H       2.51440468      0.47461141     -1.02196801
H       1.35199202      1.72883219     -0.57769678
H       1.28582349      0.64939290      1.74324802
H       2.44522885     -0.53098935      1.12412902
H       0.31746102     -1.97822222      0.67321602
