21
b3lypvtz=-172606.35085228
C       2.03995396      0.71273154     -0.80093781
C       1.42981884     -0.02860121      0.38707147
C       0.11031676     -0.76508286      0.07405297
C      -0.34702426     -1.58204207      1.29552427
C      -0.98551733      0.15928876     -0.42793887
C      -1.51969257     -0.00437274     -1.63680894
C      -1.45645710      1.25936177      0.48767429
H       1.38639029      1.51069160     -1.15606729
H       2.99842993      1.15954394     -0.53269875
H       2.21190399      0.03498570     -1.64044940
H       1.26892120      0.66864907      1.21454086
H       2.14469669     -0.76896664      0.75628787
H       0.31869850     -1.47273123     -0.73351391
H      -0.49988908     -0.94579015      2.16925872
H      -1.28151233     -2.10673797      1.09319535
H       0.40790490     -2.32451246      1.55983850
H      -1.18624164     -0.79115643     -2.30241361
H      -2.30881623      0.63987977     -2.00466022
H      -0.64229227      1.94120971      0.74693488
H      -2.24814037      1.84361310      0.02178396
H      -1.84145189      0.86003879      1.42932565
