16
b3lypvtz=-202010.63871263
C       1.43168414     -1.70359839     -0.22766362
C       0.46177344     -1.06422589      0.42944046
N      -0.07601287      0.18169127      0.09276013
C      -1.46823299      0.45056759      0.44282552
C      -2.45689134     -0.24457022     -0.48679881
N       0.68052022      1.35062297     -0.05794697
N       1.90782878      1.32480359     -0.16271743
H       1.82441941     -2.63062169      0.16441167
H       1.82268037     -1.36166566     -1.17530335
H       0.04716232     -1.49598888      1.33824926
H      -1.64816421      0.14511022      1.48083519
H      -1.58502175      1.53108444      0.39417414
H      -2.33928564     -1.32870334     -0.45778565
H      -2.31476883      0.08497698     -1.51645228
H      -3.47997818     -0.01002205     -0.18817828
H       2.29737313      0.36735208     -0.10766197
