18
b3lypvtz=-205217.04442231
C       2.35315314      1.16256062     -0.36002340
C       2.26179441     -0.09465441      0.50216522
C       1.14445124     -1.05300092      0.08100303
N      -0.17172015     -0.47708481      0.30021267
C      -0.97135533     -0.42549418     -0.66959403
O      -2.21846911      0.06897862     -0.60000729
C      -2.63839052      0.55495489      0.68077162
H       2.53158442      0.91023920     -1.40846794
H       3.17044435      1.80640570     -0.03154772
H       1.43127501      1.74309304     -0.30937944
H       2.10187208      0.18226930      1.54700089
H       3.20877440     -0.64010484      0.46110914
H       1.21683431     -1.95958131      0.68844806
H       1.29316980     -1.35423920     -0.96767635
H      -0.76427415     -0.77394311     -1.68474947
H      -2.00525795      1.38048358      1.00545385
H      -2.58687081     -0.23721933      1.42733657
H      -3.66320114      0.88947517      0.54577159
