15
b3lypvtz=-193582.19197618
C      -2.02139748      0.66292958      0.03640597
C      -1.02411167     -0.30572042      0.62370301
C      -0.03552674     -1.02128349     -0.31561867
C       1.06029388     -0.42820550      0.60140783
O       0.07206124      0.36907476      1.30769621
C       2.12073567      0.35477268     -0.00909795
C       3.00252764      0.98268056     -0.52656974
H      -2.81060273      0.12289981     -0.49223714
H      -2.48584341      1.25488553      0.82673202
H      -1.53287837      1.34414941     -0.66142198
H      -1.52191505     -0.99275767      1.31653311
H      -0.08568857     -2.10659599     -0.35545497
H      -0.01679023     -0.61423135     -1.32407708
H       1.50016682     -1.17087793      1.27519555
H       3.77896899      1.54828002     -0.97797824
