18
b3lypvtz=-181911.44477078
C      -3.33574014      0.17468239     -0.00007327
N      -2.08954253     -0.57994429     -0.00009772
C      -1.00225978      0.08080593      0.00001821
C       0.28375340     -0.59530140     -0.00005257
C       1.50096020     -0.02689440      0.00000853
C       2.73893063     -0.87875571     -0.00007159
C       1.76288182      1.45328037      0.00015294
H      -3.42088783      0.81494737      0.88436082
H      -3.42176179      0.81325335     -0.88564024
H      -4.17939074     -0.51359259      0.00094613
H      -1.00464309      1.17853085      0.00020942
H       0.20970637     -1.67725267     -0.00016588
H       2.50166812     -1.94144103     -0.00015301
H       3.35867398     -0.66366359     -0.87615264
H       3.35868921     -0.66379107      0.87603340
H       2.35656732      1.73235778     -0.87545576
H       0.85986065      2.05759305      0.00024576
H       2.35666519      1.73214166      0.87576947
