16
b3lypvtz=-181121.14092823
C       2.24430440      0.31550264     -0.22838420
C       0.94656219      0.06211800     -0.19449192
C       0.03702539     -1.05821986      0.27001583
C      -0.97919671     -0.33999913      1.17396840
C      -1.24676320      0.90838296      0.27066454
C      -0.30747117      0.54946181     -0.89318658
N      -0.67151353     -0.92303709     -1.07691968
H       2.95564332     -0.31459013      0.29036946
H       2.63971306      1.16107908     -0.77681692
H       0.39769115     -2.03987454      0.56519696
H      -1.87133537     -0.94566186      1.32306645
H      -0.55747743     -0.08231816      2.14459182
H      -0.97136480      1.84784370      0.74805446
H      -2.28150600      0.96837476     -0.06203207
H      -0.29435848      1.18942228     -1.77130703
H      -0.03995283     -1.29848449     -1.78278954
