17
b3lypvtz=-240990.25857595
C      -1.61661615     -0.63745103     -0.79058643
C      -1.03648595      0.55056361     -0.02674930
O      -1.86009642      0.89462808      1.08518597
C       0.39861408      0.34068557      0.46708725
O       0.36329531     -0.71404172      1.42678704
C       1.42067079      0.02745429     -0.61655757
O       2.70758722     -0.20805019     -0.03575433
H      -1.09972259     -0.80156442     -1.73833161
H      -1.54521748     -1.54951539     -0.19768442
H      -2.66645390     -0.44308396     -1.00656925
H      -1.04350968      1.43328620     -0.67140301
H      -1.69491398      0.23407125      1.76897811
H       0.69968529      1.27348730      0.96689611
H       1.27741387     -0.96906593      1.59954939
H       1.16210592     -0.89895187     -1.12733026
H       1.45988363      0.83349449     -1.35696185
H       3.07386004      0.63405373      0.25334418
