15
b3lypvtz=-191212.82459876
C      -1.96929096      0.83280669     -0.61980807
C      -1.11805313     -0.01662455     -0.04552943
C      -1.53544394     -1.36994396      0.46765696
C       0.31877543      0.35761293      0.10657099
N       0.74281830      1.44426951      0.61648522
C       1.35541157     -0.62109887     -0.38770581
N       2.60444077     -0.47702496     -0.25610367
H      -1.64092860      1.78751610     -1.00878867
H      -3.01702705      0.58803423     -0.73672990
H      -1.04969470     -2.17827637     -0.08341316
H      -2.61261753     -1.50253965      0.37923498
H      -1.25769467     -1.49363627      1.51710979
H      -0.03082728      2.02580501      0.93619132
H       0.98733615     -1.50232908     -0.91170396
H       2.78362165      0.39852624      0.24892840
