12
b3lypvtz=-226233.40909774
C       2.43998425     -0.01776523     -0.62716266
N       1.27554663      0.48220799     -0.50168422
C       0.21299336     -0.32326725     -0.13092885
C      -1.00295125      0.25031315     -0.01105623
O      -1.22608349      1.56343097     -0.23491963
C      -2.21724659     -0.50281979      0.37836209
O      -2.23428528     -1.68580688      0.62203166
H       3.26443792      0.62451695     -0.91832093
H       2.65417518     -1.07613466     -0.45397905
H       0.33318593     -1.38465012      0.06170985
H      -0.36932339      1.95103968     -0.48061547
H      -3.13043328      0.11903519      0.42976344
