19
b3lypvtz=-171829.6346669
C       3.89925779     -0.54326023     -0.00014722
C       2.53881842     -0.02156770     -0.00011931
C       1.41940583      0.41612759     -0.00013042
C       0.05107271      0.92523425      0.00037359
C      -1.01718579     -0.18214790     -0.00001631
C      -2.44234928      0.37067861      0.00028140
C      -3.50945350     -0.72320023     -0.00058168
H       4.38375426     -0.38375671      0.96547824
H       3.91073023     -1.61607207     -0.20384039
H       4.50942646     -0.05452535     -0.76270805
H      -0.09578635      1.56845124     -0.87341835
H      -0.09501452      1.56771156      0.87483853
H      -0.86684496     -0.82067389      0.87457018
H      -0.86699093     -0.81978195     -0.87530513
H      -2.58011973      1.01498143     -0.87388810
H      -2.58024257      1.01379700      0.87530354
H      -4.51475740     -0.29885465     -0.00031860
H      -3.41929864     -1.36311114      0.87992048
H      -3.41919702     -1.36173887     -0.88207440
