11
b3lypvtz=-212984.79304138
C      -2.45981252     -0.29053161     -0.00003290
N      -1.58071997      0.62986195     -0.00003503
C      -0.24063881      0.31786764     -0.00000818
C       0.83536922      1.15380162     -0.00000204
C       1.94387925      0.27571117      0.00002232
N       1.58386721     -0.98179650      0.00000167
O       0.18796230     -0.96802977     -0.00005562
H      -2.22743021     -1.35575521      0.00004692
H      -3.50527705      0.00176082      0.00001334
H       0.81815321      2.22794796      0.00000725
H       2.99624137      0.51314892      0.00001127
