9
b3lypvtz=-233098.707100472
C       0.09579989      0.84169155      0.03741461
N      -1.09794022      0.31306363     -0.02473304
N      -1.39609030     -0.99298562     -0.08779758
N      -0.35510654     -1.80892074     -0.08538261
N       0.87664435     -1.42751244     -0.02794975
C       1.22906951     -0.06310617      0.03931655
O       2.37891357      0.32193737      0.09400080
H       0.19627598      1.91713085      0.08443521
H      -1.92756623      0.89870158     -0.02930419
