10
b3lypvtz=-251380.52518486
N      -2.13987259      0.09040314     -0.00008581
C      -0.94900480     -0.28765781     -0.00006597
F      -0.57903721     -1.57768716     -0.00006802
C       0.19119954      0.69353855     -0.00003888
N      -0.00904562      1.94656128     -0.00002942
C       1.64284532      0.27435349     -0.00003153
O       2.05642921     -0.85257993     -0.00008564
H      -2.79960600     -0.68442028     -0.00010313
H      -1.01350966      2.14541663     -0.00004619
H       2.30454081      1.15971509     -0.00000842
