18
b3lypvtz=-205219.93700253
N       1.88709682      0.16749728      0.80703822
C       1.03388991      0.02005056     -0.37344619
C       0.39617168     -1.38868978     -0.42046652
C      -1.11825375     -1.21303476     -0.11414372
C      -1.26266394      0.23216514      0.38614639
C      -0.18664288      0.97256088     -0.41058011
O       0.18220159      2.25271328      0.09065750
H       2.14592173      1.14274359      0.91243231
H       1.37495088     -0.07850686      1.64751045
H       1.66747152      0.20215018     -1.24278673
H       0.54712924     -1.86135802     -1.39055273
H       0.89035788     -2.02419283      0.31435339
H      -1.70553222     -1.34868321     -1.02434707
H      -1.48501402     -1.94349725      0.60638887
H      -1.02934047      0.30880080      1.45143162
H      -2.26457825      0.63986853      0.24099635
H      -0.51699915      1.06298639     -1.45453769
H      -0.55616656      2.85662606     -0.02629434
