19
b3lypvtz=-195140.06998173
C      -2.91738569     -0.21044577     -0.48298577
C      -1.78376041     -0.35049092      0.54379621
C      -0.71648204      0.69042153      0.38326739
C       0.54766013      0.47188536      0.01459468
C       1.56966627      1.55859256     -0.15242866
O       0.93352068     -0.80954810     -0.31976728
C       2.22909460     -1.23960340      0.07440449
H      -3.38627187      0.77416919     -0.42268318
H      -2.53922299     -0.33591726     -1.49862160
H      -3.69348318     -0.95967902     -0.31450647
H      -2.21222845     -0.27181254      1.54898713
H      -1.33954249     -1.34239417      0.46609830
H      -1.00640797      1.72202882      0.54845981
H       2.39951275      1.45986825      0.55145037
H       1.10954984      2.53063752      0.01181467
H       1.99416341      1.54322274     -1.16005274
H       2.30079219     -2.28622755     -0.21357749
H       3.02223003     -0.68148431     -0.42945281
H       2.36553121     -1.15862791      1.15733392
