15
b3lypvtz=-191241.98800115
C      -2.44034723      0.16259274      0.59970618
C      -1.54545772     -0.20609840     -0.58104028
N      -0.12415187     -0.07965341     -0.28817849
C       0.60790063      1.08545625     -0.22574104
C       1.87443101      0.71061855      0.13244458
N       1.94354133     -0.65064393      0.29540864
C       0.73363496     -1.08795867      0.03895051
H      -3.48991089      0.04204078      0.32675835
H      -2.28515956      1.19830570      0.90234176
H      -2.23291361     -0.47659365      1.45820949
H      -1.72160511     -1.23890919     -0.88257087
H      -1.77392969      0.42135015     -1.44408220
H       0.17219692      2.04464018     -0.44395102
H       2.73660002      1.34073228      0.27421539
H       0.41514681     -2.11830539      0.06416703
