18
b3lypvtz=-202790.03060469
C       3.10636906      0.15963116      0.42940510
N       2.04583268     -0.48907467     -0.33803192
N       0.82528996      0.27525041     -0.19117526
C      -0.19923593     -0.49046495     -0.16354431
N      -1.48153544     -0.02769871     -0.14632549
C      -2.55092694     -0.90795856      0.27678858
C      -1.72587139      1.39879326     -0.04789151
H       3.18994018      1.23486392      0.22838331
H       2.91500771      0.02780303      1.49465932
H       4.05368474     -0.32622336      0.19016669
H       2.29361506     -0.41656143     -1.32066586
H      -0.09713786     -1.57619026     -0.18308157
H      -2.27584518     -1.94343887      0.08090765
H      -3.46238912     -0.68392594     -0.28106360
H      -2.77569861     -0.80964942      1.34676753
H      -1.69914628      1.74991796      0.99085463
H      -0.95614495      1.93056681     -0.60099658
H      -2.70752771      1.62587362     -0.46614270
