13
b3lypvtz=-237100.42936152
C       2.58492776     -0.21993217      0.00002796
N       1.18560632     -0.57812057      0.00024172
C       0.18437865      0.32080683      0.00004666
N       0.20960588      1.60320441     -0.00011620
C      -1.20336655     -0.31697897      0.00004285
O      -1.37125297     -1.50949871      0.00006835
O      -2.17892864      0.58220748     -0.00007882
H       3.18384255     -1.12709085      0.00096251
H       2.84751929      0.36386720     -0.88687555
H       2.84726164      0.36546592      0.88594256
H       0.89882042     -1.54446005      0.00009051
H       1.14117959      2.00743374     -0.00017598
H      -1.72127093      1.45365473     -0.00012957
