13
b3lypvtz=-213775.34486939
C      -0.79373508     -0.97783458     -0.03204634
C       0.69885358     -1.00152288      0.27256452
O       1.25999887     -2.05275092      0.46452450
C       1.42464270      0.33176140      0.30169574
N       0.75924040      1.47703297     -0.29791662
C      -0.50480996      1.42505706     -0.41843799
N      -1.32861591      0.37374886     -0.08870696
H      -1.30273512     -1.56635735      0.73332813
H      -0.91855977     -1.50847386     -0.98426059
H       1.62139492      0.54964203      1.36079743
H       2.40686357      0.18690398     -0.15207160
H      -1.03117016      2.30207532     -0.78982659
H      -2.29136807      0.46071798     -0.36964361
