17
b3lypvtz=-215268.31069707
C       1.79999737      1.14730996     -0.56143020
C       1.13391520     -0.18408357     -0.26104166
O       2.17790845     -1.08222414      0.11756008
C       0.07258520     -0.08908362      0.85465823
C      -1.09442220      0.80793912      0.53955006
N      -2.18010239      0.49185238     -0.05107307
N      -2.37811725     -0.81370412     -0.44225345
H       1.07155755      1.87516851     -0.91835378
H       2.27904500      1.54017810      0.33712095
H       2.56472969      1.01721137     -1.32654940
H       0.65368820     -0.54784526     -1.18027493
H       1.79358387     -1.93865903      0.32895769
H       0.57315847      0.27365045      1.75508439
H      -0.29473904     -1.09669326      1.07882973
H      -1.04095420      1.84416832      0.85653696
H      -3.11071830     -0.84611315     -1.13386330
H      -1.55381764     -1.30978906     -0.76183730
