10
b3lypvtz=-223064.92886213
C      -0.24783181     -0.86449592     -0.21419434
C      -1.46280084     -0.23672253     -0.08394955
N      -1.58412887      1.06407064      0.22939525
N      -0.50304770      1.78059567      0.42301226
N       0.70245181      1.25007468      0.31605719
C       0.84529459     -0.03590653      0.00656109
O       2.09233277     -0.51032399     -0.08608572
H      -0.13861238     -1.90916144     -0.46559799
H      -2.39626535     -0.76532235     -0.22910655
H       2.69260780      0.22719176      0.10390836
