11
b3lypvtz=-213008.92000253627
C      -2.01381661     -0.15300932     -0.12334786
C      -0.63770604      0.36770238      0.05217433
N       0.38842588     -0.38578658     -0.06786592
C       1.64146216      0.24523448      0.12634697
O       1.86266367      1.39980448      0.38865163
C       2.75311290     -0.70514277     -0.03146878
N       3.65225056     -1.41412243     -0.14594059
H      -2.59394426      0.02660496      0.78676106
H      -2.51926000      0.40364368     -0.91817391
H      -2.00959029     -1.21421220     -0.35772152
H      -0.52359796      1.42928332      0.29058460
