16
b3lypvtz=-202032.56302769
C       3.58153330     -0.29347483      0.03666443
N       2.33962002      0.44575764      0.07826692
C       1.25372078     -0.20234006     -0.04483026
C      -0.03345803      0.46309028     -0.01144721
N      -1.10800861     -0.22940198     -0.13405100
N      -2.29321598      0.39742380     -0.16624046
C      -3.45558640     -0.41048089      0.14984286
H       4.13547457     -0.12340047      0.96328885
H       3.44942623     -1.37512925     -0.10249043
H       4.20467990      0.09172894     -0.77433011
H       1.21939236     -1.29120384     -0.18026630
H      -0.03867659      1.54895800      0.11236186
H      -2.30624151      1.34901081      0.19043011
H      -4.35298293      0.15435067     -0.10046567
H      -3.43024634     -1.31319616     -0.45743288
H      -3.50308679     -0.70252065      1.20526529
