18
b3lypvtz=-205219.8393244
C      -2.56348674     -0.41780666     -0.34346844
N      -1.14879091     -0.75191996     -0.19574233
C      -0.23757020      0.39349754     -0.28825851
C      -0.45432800      1.38131091      0.86549429
C       1.22042440     -0.08804529     -0.28151973
C       1.64151870     -1.07626349      0.78284635
O       2.00485213      0.34771263     -1.09400820
H      -2.78159518      0.21177766     -1.21951467
H      -2.92667104      0.10262954      0.54232732
H      -3.13638262     -1.34026420     -0.43560189
H      -0.90274351     -1.41708065     -0.91993675
H      -0.35544663      0.94148689     -1.23391564
H      -0.40735583      0.87198550      1.82873741
H       0.30474444      2.16369157      0.83908921
H      -1.42664878      1.86616161      0.78448086
H       0.93316875     -1.90036715      0.85715616
H       2.64422675     -1.43669765      0.56742153
H       1.64298827     -0.57983581      1.75685504
