14
b3lypvtz=-201267.60925639
C      -1.84768173      0.03819576     -0.16654991
C      -0.58873737      0.25324880      0.60747790
N      -1.52083858     -0.81078563      0.97998490
C       0.73070468     -0.19272074      0.05972164
N       1.07753897     -1.40320130     -0.08980023
C       1.68081303      0.89426695     -0.35447775
N       2.83593612      0.70762227     -0.83332072
H      -2.63517486      0.77575424     -0.07014392
H      -1.79072216     -0.45610423     -1.12799730
H      -0.55698444      1.14829806      1.22051633
H      -2.05975516     -0.55266892      1.79846987
H       0.33527972     -2.01981787      0.24932975
H       1.33011174      1.92019798     -0.22561272
H       3.00951003     -0.30228537     -0.88978927
