14
b3lypvtz=-180369.28993126
C       3.78626863     -0.33551681      0.01313349
C       2.37675318      0.01708374     -0.01189926
C       1.20380507      0.29673212     -0.03019666
C      -0.15934773      0.66557354     -0.05454339
C      -1.19464990     -0.19030960      0.01708056
C      -2.57999479      0.25617620     -0.01243950
N      -3.62683065     -0.46791354      0.04902768
H       4.00462875     -1.12588523     -0.70807922
H       4.41291987      0.52487178     -0.22825329
H       4.07935581     -0.69802722      1.00102195
H      -0.37041697      1.72860306     -0.13795111
H      -1.01231224     -1.25664086      0.10041680
H      -2.72726886      1.33566051     -0.09690185
H      -3.37790015     -1.45719370      0.12606081
