17
b3lypvtz=-191947.72590596
C       1.93517406      0.00924652      0.35211932
C       0.74461489      0.59267847     -0.36988051
C      -0.20214455     -0.18333398     -1.25406637
N      -0.50900371     -1.53064728     -0.76510083
C      -0.97515333     -0.98018215      0.54205708
C      -0.69803437      0.44638374      0.04472945
N      -1.51882603      1.59728714      0.20964635
H       2.82143772      0.03256572     -0.28547712
H       1.77473199     -1.02859625      0.64766788
H       2.16525337      0.57374764      1.25862710
H       0.91027444      1.58959327     -0.76497996
H      -0.40728414      0.09365697     -2.27972616
H       0.30020104     -2.13907354     -0.69190528
H      -2.03970287     -1.17829834      0.69125389
H      -0.42871434     -1.31221680      1.43024203
H      -1.36963124      2.04383996      1.10665100
H      -2.50339293      1.37324890      0.12814212
