11
b3lypvtz=-262012.338752
O      -2.05408541     -0.41880385     -0.69190833
C      -1.26765463     -0.32055362      0.21422963
C       0.15508391      0.20993373     -0.03152771
O       0.32629494      0.49458496     -1.38361031
O       0.35356949      1.35377356      0.77032644
C       1.22321629     -0.80795206      0.38640420
O       0.96406966     -1.92938736      0.72844137
H      -1.52976639     -0.54055028      1.25967517
H      -0.51055265      0.25511182     -1.82075784
H       0.08391680      2.12153055      0.25035664
H       2.25580800     -0.41768745      0.31837074
