14
b3lypvtz=-224587.28448508
C       2.60274034     -0.36434674      0.80113099
C       1.26582599     -0.12354758      0.19085976
N       0.30875053     -0.95061555      0.32436652
C      -0.94510299     -0.66088756     -0.22262877
N      -1.36870729      0.50825380     -0.47754107
N      -2.62912380      0.61925856     -1.04668885
O      -1.71643747     -1.77163139     -0.41299477
H       2.62781521     -1.31990044      1.32065100
H       2.84308370      0.43653073      1.50678288
H       3.38186622     -0.34340319      0.03396384
H       1.12289710      0.80224200     -0.37264706
H      -3.03313548      1.50028184     -0.76504494
H      -3.24460687     -0.15600790     -0.81798829
H      -1.21586518     -2.51851056     -0.06222123
