14
b3lypvtz=-224601.93664304
N       1.91376889     -1.20064112     -0.26662957
C       1.45954214     -0.02970823     -0.05463775
N       2.16049088      1.11937326      0.22427034
N       0.05933544      0.23938209     -0.07144662
C      -0.73588802     -0.71461105      0.18064799
C      -2.21013215     -0.48422431      0.12271947
O      -2.55927499      0.83098093     -0.21942181
H       2.92992232     -1.22811436     -0.23883929
H       3.14634630      1.13485336      0.02958318
H       1.66813908      1.98689279      0.09582731
H      -0.37493312     -1.71522866      0.42636908
H      -2.63185009     -1.19818856     -0.60012189
H      -2.63856404     -0.75461694      1.09835475
H      -1.72241366      1.29928779     -0.35874120
