17
b3lypvtz=-191965.54573174
C      -3.62616211      0.07031181      0.03747151
C      -2.18643590      0.46566107     -0.04013954
C      -1.15190163     -0.37964485      0.01814522
C       0.23688785      0.02442895     -0.05440237
N       1.16496719     -0.86346583      0.00941282
N       2.46434430     -0.50802613     -0.11208073
C       2.92314360      0.85394905      0.07649669
H      -4.17247416      0.38135636     -0.85819469
H      -4.12477618      0.55025129      0.88524807
H      -3.73973179     -1.00878564      0.14514126
H      -1.98475963      1.52832584     -0.15231582
H      -1.32312768     -1.44586014      0.12866536
H       0.44521209      1.08800954     -0.17359620
H       3.05762320     -1.22504615      0.26909595
H       4.01120659      0.84373171      0.10659707
H       2.61682306      1.48970944     -0.75712977
H       2.54436819      1.30288266      1.00460819
