17
b3lypvtz=-191977.22859645
C       2.54249265     -0.92583575      0.11936590
N       1.43645451     -0.02670554     -0.15456764
C       1.69208081      1.39176892     -0.00932711
C       0.15960211     -0.49480209     -0.09739704
C      -0.98723380      0.21807515      0.00564156
C      -2.27688994     -0.43801683     -0.01877399
N      -3.44084192      0.08364459      0.06547483
H       2.26457621     -1.94225383     -0.15444490
H       3.41341000     -0.63849352     -0.47151886
H       2.83094605     -0.92300075      1.17813083
H       1.04215176      1.95915463     -0.67573003
H       2.72589194      1.59993930     -0.27988012
H       1.52337024      1.74373953      1.01633853
H       0.08922909     -1.57524820     -0.16802956
H      -0.97369897      1.29612779      0.11054972
H      -2.24219777     -1.52764808     -0.11907772
H      -3.37005596      1.10037267      0.15329359
