15
b3lypvtz=-191228.51365965
C      -2.56126160      0.33567029      0.14845177
N      -1.49754427     -0.58813165     -0.19837582
C      -0.16915034     -0.27814998     -0.06700663
N       0.75021370     -1.18219150      0.03843141
C       2.01973932     -0.47664046      0.08114175
C       1.69373867      0.98489640      0.00325240
C       0.36431381      1.09858899     -0.08712092
H      -3.51577198     -0.11404200     -0.12027652
H      -2.46798427      1.25963957     -0.42217113
H      -2.59126457      0.59187877      1.21432045
H      -1.68530412     -1.56494511     -0.03438571
H       2.56721003     -0.72699097      0.99771162
H       2.66492141     -0.78974147     -0.74909425
H       2.41739517      1.78671022      0.01316171
H      -0.21041798      2.00835690     -0.16506714
