20
b3lypvtz=-182662.42743897
C      -2.11359706      1.24281853     -0.23853630
C      -2.15077646     -0.18540758      0.30655278
C      -0.96642212     -1.06162667     -0.12496152
C       0.37083623     -0.60666708      0.41258107
N       1.61851324     -1.20572286     -0.09510771
C       1.31524964      0.20671126     -0.38995903
C       2.23199171      1.23475760      0.21858233
H      -2.99522158      1.80435166      0.07480544
H      -2.09058858      1.24628633     -1.33093498
H      -1.23437701      1.78490220      0.11191842
H      -2.19255176     -0.15803046      1.39977264
H      -3.07540437     -0.67024474     -0.01747950
H      -0.91991751     -1.10367194     -1.21907625
H      -1.14695530     -2.08652841      0.21601707
H       0.39045310     -0.46222016      1.49019340
H       1.41557585     -1.78716817     -0.90285702
H       0.99076839      0.42792170     -1.40320985
H       2.52401347      0.93559313      1.22538731
H       3.14235616      1.34483115     -0.37471961
H       1.74579697      2.21171955      0.27396033
