18
b3lypvtz=-181902.34492959
C       2.63219423     -0.64074039     -0.21964708
C       1.16628983     -0.74394995      0.08766516
C       0.32780401      0.29540356      0.20451326
N       0.73658610      1.63407083      0.15020538
C      -1.12760431      0.15397190      0.49447287
C      -1.91941907     -1.05757725      0.10756299
C      -2.14165386      0.23519943     -0.63075853
H       2.99799865     -1.55400677     -0.69118420
H       2.85495448      0.18252222     -0.90620033
H       3.24038437     -0.48043424      0.67783559
H       0.76592732     -1.73171294      0.26639467
H       0.06273884      2.25731555     -0.26915898
H       1.66642089      1.79141864     -0.20617111
H      -1.43257047      0.64432290      1.41289959
H      -2.68559426     -1.39684846      0.79065045
H      -1.41128906     -1.84943101     -0.42299546
H      -1.75937518      0.29775998     -1.64077118
H      -3.05866551      0.78184299     -0.45845806
