13
b3lypvtz=-192793.61049026
C      -3.30552980     -0.41932906     -0.24849688
C      -2.16255369     -0.27696450      0.08182845
C      -0.78032677     -0.12756817      0.51275838
O      -0.09845355      0.76140591     -0.36643007
C       1.23709525      1.02671932      0.03100087
C       2.12872963     -0.13315124     -0.05454759
C       2.85759016     -1.08322764     -0.12313831
H      -4.31636899     -0.54092945     -0.54820644
H      -0.75481628      0.26465654      1.53907896
H      -0.28825702     -1.10715507      0.52382182
H       1.59085354      1.81109997     -0.63879980
H       1.26192174      1.42709694      1.05374009
H       3.50491278     -1.92203556     -0.18959250
