15
b3lypvtz=-193584.3111196
C      -1.82747234      0.83780451      0.27399916
C      -0.60562554      0.30473244     -0.43203175
C       0.69131110      0.07569850      0.34855531
C      -0.12157780     -1.08646003     -0.21321071
O      -0.85645599     -1.88647346      0.66585641
C       1.96415998      0.41884391     -0.20767351
C       3.02986672      0.69882928     -0.68776510
H      -1.76853660      1.92227367      0.38070419
H      -1.93735069      0.39790880      1.26368921
H      -2.73099979      0.60417970     -0.29263044
H      -0.45575955      0.68003270     -1.43651778
H       0.59539676      0.20290733      1.42076988
H       0.31013406     -1.60745006     -1.06187521
H      -0.25830382     -2.51325326      1.08564739
H       3.97121349      0.95042597     -1.10751705
