15
b3lypvtz=-216914.36622722
C      -0.67508766      1.59244054     -0.25380340
C      -0.61544856      0.09123753     -0.13237888
C       0.54645637     -0.59813898     -0.81471493
C       1.89867151     -0.39133060     -0.17946044
O       2.11549404      0.26889048      0.80395542
C      -1.27944370     -0.58591645      0.98428540
O      -1.87197433     -0.58745158     -0.32113229
H      -1.57960540      1.97401397      0.21750915
H       0.19209379      2.04681680      0.22553470
H      -0.68698516      1.89087519     -1.30466264
H       0.62401570     -0.28058312     -1.86229397
H       0.36547341     -1.67735606     -0.85828162
H       2.72800045     -0.91829464     -0.69681880
H      -0.91511977     -1.54871683      1.32942389
H      -1.80051667      0.00516674      1.73019840
