13
b3lypvtz=-242068.45717626
C       2.62592365      0.00410804     -0.00002059
C       1.48892967     -0.97379763      0.00002813
N       0.22591037     -0.78247492      0.00002925
C      -0.46891277      0.38214909     -0.00000529
F       0.15844966      1.60150322     -0.00008427
C      -1.81222940      0.37555004      0.00000884
O      -2.54692699     -0.75448474      0.00007015
H       3.25822192     -0.17766948      0.87432228
H       3.25771408     -0.17716356     -0.87484179
H       2.30757215      1.03967475      0.00035253
H       1.79065733     -2.02104241      0.00003565
H      -2.39119704      1.28625376     -0.00003437
H      -1.91548964     -1.49268014      0.00009148
