17
b3lypvtz=-191963.93263706
C      -2.72542734     -0.85685804     -0.00000437
N      -1.80344508      0.02664338      0.00000592
N      -0.52486579     -0.36958187      0.00000141
C       0.53584863      0.53588306     -0.00000134
C       0.14485077      1.98397405     -0.00000179
C       1.81708387      0.13527630     -0.00000230
C       2.34295707     -1.26956930      0.00000227
H      -2.52686649     -1.93128214     -0.00001556
H      -3.75054908     -0.51631621      0.00000142
H      -0.32449588     -1.36192501     -0.00002183
H      -0.45995004      2.22894709     -0.87440620
H       1.03805087      2.60446591     -0.00000509
H      -0.45994415      2.22894909      0.87440608
H       2.56313529      0.91882382     -0.00000949
H       1.56448907     -2.03405575      0.00007239
H       2.96930402     -1.45768956      0.87715982
H       2.96920124     -1.45774081     -0.87721836
