12
b3lypvtz=-202940.07718113
C      -2.24845721     -1.14592449     -0.02657272
C      -0.98427169     -0.81281239      0.21994042
C      -0.50805295      0.57946881      0.02704896
O      -1.21413181      1.48493210     -0.34957489
C       0.96264953      0.88322732      0.38747390
C       1.91495053     -0.13892998     -0.02159780
N       2.65058855     -0.95888759     -0.35371080
H      -2.60573044     -2.15672624      0.11402949
H      -2.95170609     -0.40243616     -0.37955755
H      -0.26754714     -1.54820345      0.56240134
H       1.22242592      1.84291427     -0.05681373
H       1.01716381      0.99760280      1.47509037
