13
b3lypvtz=-213779.70280346
C      -1.54170280     -0.17230678     -0.13539636
C      -0.56829268     -1.31765332     -0.06503885
C       0.66834627     -0.82856990      0.06652189
C       0.64096428      0.64980555      0.09097756
N       1.73419378      1.30884948      0.16240044
N      -0.68253555      0.99665072      0.03919171
O       1.85311129     -1.44451713      0.16476459
H      -2.30073595     -0.22291522      0.65289657
H      -2.06931934     -0.13725440     -1.09592686
H      -0.86426126     -2.35283610     -0.10714834
H       1.61307366      2.31726028      0.17672183
H      -0.99036549      1.92700014     -0.17985708
H       2.50752378     -0.72351330      0.22989290
