17
b3lypvtz=-194350.74502259
C       3.48703005     -0.50706240      0.19528683
C       2.39267626     -0.17768857     -0.17071804
C       1.05629426      0.22658618     -0.58974498
C       0.13692412      0.59080291      0.58868982
C      -1.26697942      0.97930945      0.13031153
O      -1.94536634     -0.04634071     -0.57974274
C      -2.49680932     -1.05791972      0.23951517
H       4.45699232     -0.79976707      0.51033395
H       1.13531898      1.08301886     -1.26693772
H       0.59563005     -0.57684195     -1.16916162
H       0.09331532     -0.24714426      1.28725502
H       0.56459901      1.43039096      1.14215881
H      -1.86576925      1.29704464      0.99382069
H      -1.21030831      1.82320576     -0.56106381
H      -3.05175932     -1.72950973     -0.41326672
H      -1.73076265     -1.63827924      0.76556296
H      -3.18478277     -0.63574810      0.98276984
