14
b3lypvtz=-226999.56646358
C      -3.39232204     -0.20736128      0.29115681
O      -2.26086673      0.44985434     -0.26541154
C      -1.09833459     -0.26102548     -0.19270844
C       0.07288787      0.35541282     -0.04741198
N       1.31192310     -0.28880382     -0.07268309
C       2.51799567      0.32625717      0.09793465
O       3.58447736     -0.24712980      0.08611665
H      -3.28637866     -0.33090050      1.37293603
H      -3.54203721     -1.19000524     -0.16863042
H      -4.25475116      0.42032788      0.08059675
H      -1.18448645     -1.33901436     -0.31111586
H       0.11201291      1.42867757      0.07789371
H       1.35134210     -1.28827481     -0.21465219
H       2.41742483      1.41509251      0.24766593
