13
b3lypvtz=-213770.5333401
C      -1.14763112     -0.78101284     -0.13363944
C      -0.13497573      0.21963605      0.44127537
C       1.15309966      0.18484027     -0.38561416
O       1.56747365      1.10132004     -1.04740566
C       1.90966586     -1.08644021     -0.32990844
N       2.48064286     -2.08372120     -0.25591929
N      -0.72104366      1.53943490      0.54333987
H      -2.03199204     -0.78947733      0.50034377
H      -1.44767820     -0.48316848     -1.14029620
H      -0.73898254     -1.78972722     -0.18166602
H       0.14089785     -0.11896816      1.44667962
H      -0.97579637      1.88385211     -0.37607266
H      -0.05368021      2.20343208      0.91888322
