16
b3lypvtz=-181121.13507985
C      -1.25148648     -0.24614110      0.56821597
C      -1.05727506      0.74542366     -0.61207117
C       0.44391559      0.68018358     -0.89249756
C       0.84280532     -0.79874868     -0.67461164
C       0.01766919     -1.09360817      0.55157537
C       1.35121420     -0.36608689      0.66923206
N       1.25185513      1.05267370      0.32027460
H      -2.13869400     -0.86541054      0.43235279
H      -1.37547047      0.27800355      1.51874167
H      -1.38958238      1.75868592     -0.37505415
H      -1.61272193      0.41624620     -1.49431187
H       0.77250936      1.18426547     -1.79945675
H       1.23280526     -1.50609841     -1.38911101
H      -0.00471749     -2.10793654      0.92752426
H       2.17738917     -0.74868614      1.25400386
H       0.73978460      1.61723437      0.99519357
