18
b3lypvtz=-202822.87964633
C      -3.14021161     -0.48435006      0.11727801
C      -1.87623385      0.36348971      0.04938339
N      -0.69723522     -0.48022365     -0.05605724
C       0.44490594      0.08206639     -0.13352909
N       0.71052242      1.43122747     -0.14218933
C       1.67527590     -0.78626714     -0.32748905
N       2.84275116     -0.24185365      0.37946784
H      -3.22938571     -1.10295467     -0.77640554
H      -4.03139390      0.14150919      0.19652854
H      -3.10612309     -1.15033135      0.98032028
H      -1.82211004      0.99970772      0.94746453
H      -1.94123854      1.04952692     -0.80775747
H       0.00418460      2.06219501      0.19413323
H       1.66695604      1.67067134      0.07428843
H       1.91163791     -0.79387611     -1.39480343
H       1.39680569     -1.80350185     -0.04520275
H       2.80364019     -0.47493084      1.36484074
H       3.69908912     -0.63914345      0.01623292
