17
b3lypvtz=-243595.69739571
N      -0.52652324     -1.30829549     -0.58554395
C      -0.63013460      0.08972865     -0.13530525
C      -1.78774200      0.32018262      0.82631791
F      -2.98277293     -0.09543987      0.23060784
C       0.69397245      0.55823656      0.47650746
C       1.86639290      0.52720876     -0.50746743
O       2.24240154     -0.78199414     -0.89211699
H      -0.39333972     -1.92447645      0.21112327
H      -1.39035004     -1.59181331     -1.03356814
H      -0.82785237      0.68856583     -1.03008563
H      -1.66174458     -0.26000724      1.74487632
H      -1.89633068      1.37716033      1.07884647
H       0.57316790      1.58150528      0.84486429
H       0.94255556     -0.06572241      1.34157778
H       1.61361908      1.14010900     -1.38530490
H       2.74350093      0.98040241     -0.04219117
H       1.42097981     -1.23545052     -1.14313787
