15
b3lypvtz=-212092.48532502
C      -2.86947688      0.17197648     -0.32467910
N      -1.59705053      0.20721251     -0.34379555
N      -0.91284128     -0.56737459      0.54947093
N       0.37955070     -0.98003431      0.15512168
C       1.25104921     -0.04779205      0.02424599
C       1.06373260      1.41324866      0.31697757
N       2.48385234     -0.40556481     -0.48428788
H      -3.44334532     -0.47983994      0.33920475
H      -3.40578202      0.82948349     -0.99532035
H      -1.42135194     -1.39958484      0.83165915
H       0.69607589      1.93673747     -0.56518213
H       2.00926662      1.86742267      0.61775366
H       0.32820691      1.54286696      1.10747303
H       3.27520595      0.12941645     -0.16657052
H       2.64071774     -1.40113015     -0.53453821
