17
b3lypvtz=-194367.51481795
C       0.30718027     -1.65448601      0.56639380
C       0.45058145     -0.19383089      0.16447184
C      -0.74063961      0.40993043     -0.56391751
C      -1.98552523      0.71055395     -0.24466047
C       0.12517053      0.50702981     -1.79164956
O       1.24112448     -0.06950530     -1.07021790
C       1.04890450      0.65817893      1.27432931
H      -0.09753152     -2.24339248     -0.25572844
H       1.28236923     -2.06257787      0.83824621
H      -0.35938691     -1.75307144      1.42532023
H      -2.66664824      1.14760799     -0.96428716
H      -2.37374436      0.53135080      0.75035830
H       0.34251578      1.51923456     -2.14623980
H      -0.17876106     -0.11054928     -2.64241194
H       0.41021920      0.64053354      2.15951238
H       1.16267916      1.69165975      0.94992465
H       2.03149235      0.27133352      1.55055607
