18
b3lypvtz=-181882.50852054
C      -1.57972268      1.02228883      0.69057247
C      -0.66796008      0.46597815     -0.39228017
C      -0.94110970     -0.92572449     -1.01784606
N       0.46702392     -1.39117965     -0.75768919
C       0.61000029     -1.35462327      0.71010735
C       0.71684400     -0.07886652     -0.02164813
C       1.99421373      0.69299547     -0.15178134
H      -1.17196496      1.94360763      1.11295978
H      -1.71801575      0.31291072      1.50798240
H      -2.56716921      1.25549071      0.28550709
H      -0.55884814      1.20672974     -1.18685116
H      -1.14450517     -0.90818488     -2.08660533
H      -1.69598346     -1.54112977     -0.52174896
H       1.53315179     -1.80205074      1.05635077
H      -0.25479528     -1.58091236      1.32554565
H       2.08680925      1.43037817      0.65034867
H       2.03580318      1.22479888     -1.10495398
H       2.85642825      0.02749336     -0.09786987
