15
b3lypvtz=-214524.48005556
C       1.83123661     -1.22241402      0.12170893
C       1.07739209      0.07022340     -0.02112332
N       1.48227564      1.11428207     -0.61438622
C      -0.31405245      0.16458504      0.60447886
O      -0.85585561      1.44255639      0.43893336
C      -1.25157052     -0.90034609      0.03479455
N      -2.31133666     -0.66925304     -0.60553722
H       1.38014044     -1.99803673     -0.50123848
H       1.80335393     -1.58251305      1.15195898
H       2.87094286     -1.10253904     -0.17987845
H       2.41416526      1.01241688     -1.01051769
H      -0.19805818     -0.05765381      1.67745952
H      -0.19354634      1.93671211     -0.07873739
H      -0.96954662     -1.93725363      0.23008031
H      -2.43631846      0.34488852     -0.68549773
