10
b3lypvtz=-223067.69939803
C      -1.47251849      0.47503574     -0.20491129
N      -1.96502508     -0.65299944      0.01007730
O      -0.16157216      0.91993862     -0.04523209
C       0.90278768      0.05104793     -0.02741109
N       1.08202488     -1.01176351     -0.67438729
C       1.93663206      0.54978418      0.85634494
N       2.75359014      0.95136391      1.55878175
H      -2.07232474      1.31834030     -0.52796813
H      -1.30422173     -1.35453323      0.33835415
H       0.30062744     -1.24621449     -1.28364827
