14
b3lypvtz=-226968.13886268
C      -1.97704680     -0.76457006     -0.80032871
C      -0.95588374      0.11248121     -0.14789740
C      -1.18429573      1.30428927      0.39330971
O       0.26498189     -0.52593365     -0.20366967
N       1.32022536      0.20655228      0.38005195
C       2.39945185     -0.45195514      0.29100568
O       3.55281224      0.03508536      0.77490152
H      -2.95600211     -0.29224718     -0.77006716
H      -1.71062381     -0.95770498     -1.84171985
H      -2.03586701     -1.73074326     -0.29461639
H      -2.18697118      1.70255818      0.37606332
H      -0.40157477      1.88755923      0.84776305
H       2.49491607     -1.43110476     -0.16513264
H       3.37587773      0.90573349      1.16033660
