18
b3lypvtz=-228512.51088142
N      -0.83223913     -0.84503169     -1.52970488
C      -0.66184626      0.06004451     -0.38659419
C      -1.91102741     -0.07021194      0.49435488
O      -1.93166738      0.83976516      1.58979926
C       0.62244587     -0.14252808      0.43084703
C       1.89762395      0.23280015     -0.31366748
O       3.07853250     -0.02585612      0.43888206
H      -0.70092941     -1.80906080     -1.24184214
H      -0.14820723     -0.66088187     -2.25194049
H      -0.65995016      1.07824954     -0.79487097
H      -2.79648911      0.03868456     -0.13749901
H      -1.94343052     -1.06873624      0.93790893
H      -2.13487119      1.71737095      1.25306916
H       0.68876668     -1.19011637      0.74300784
H       0.54945488      0.45688751      1.34338468
H       2.00590714     -0.36216542     -1.22184555
H       1.85415056      1.28726102     -0.61912778
H       3.02367622      0.46352514      1.26563864
