20
b3lypvtz=-182661.16510326
C       1.86205834     -1.02921348     -0.22806475
C       0.81537275      0.01327958     -0.56399146
N       1.00812877      1.36658835      0.04129054
C      -0.44253786      1.42277050      0.38927112
C      -0.64220123     -0.07196782      0.01065006
C      -0.79014836     -0.96130140      1.24261365
C      -1.73322008     -0.37367564     -1.00924745
H       1.63335823     -1.98552342     -0.70320899
H       2.83882496     -0.70481638     -0.59428948
H       1.94596346     -1.19675367      0.84719902
H       0.77605878      0.12455918     -1.65276680
H       1.57417341      1.29964156      0.87991624
H      -0.66080816      1.68650448      1.42613563
H      -0.97571610      2.11884521     -0.26287224
H      -1.77142551     -0.81039511      1.69898201
H      -0.70200805     -2.02000070      0.98846624
H      -0.03832901     -0.73574949      2.00113850
H      -2.72717813     -0.22060773     -0.58107361
H      -1.67910596     -1.41142448     -1.34902283
H      -1.64476927      0.27026645     -1.88627440
