16
b3lypvtz=-204453.87178018
C       2.34885980     -0.72289419     -0.04262995
C       0.89044103     -1.11881006     -0.26261951
C      -0.12305659     -0.12869694      0.37040168
C      -0.12427615      1.20247183     -0.33806821
N       0.30981428      2.30718226      0.10077974
C      -1.49201457     -0.78624750      0.36857945
O      -2.44304795     -0.41701747     -0.26739778
H       3.01686942     -1.44336399     -0.51587568
H       2.56537421      0.25970645     -0.46265623
H       2.59207727     -0.69305690      1.02143783
H       0.71363798     -2.11337344      0.15672326
H       0.67787639     -1.19488516     -1.33216338
H       0.15843503      0.01457451      1.42146863
H      -0.53459196      1.18809698     -1.34868189
H       0.66181081      2.21127435      1.05671282
H      -1.55496501     -1.69231273      1.00907621
