14
b3lypvtz=-201269.28681512
N      -3.38738094      0.17598909      0.19120537
C      -2.18635496      0.24267682     -0.23302492
C      -1.03989399     -0.47514202      0.31106260
C       0.22925547     -0.41607381     -0.14170306
C       0.70252071      0.30953311     -1.30368105
N       1.92972035      0.51540749     -1.63903531
N       2.93607056      0.06701138     -0.84648546
H      -3.45224559     -0.46458950      0.98708629
H      -2.00622130      0.90414462     -1.07980074
H      -1.25270434     -1.10967663      1.16642974
H       0.96461998     -1.01167157      0.38846355
H      -0.01794711      0.69904094     -2.01139216
H       2.77432733      0.05384456      0.15379381
H       3.80633383      0.50940551     -1.09311865
