15
b3lypvtz=-214468.3207626168
C      -0.75819178     -1.10414433      0.14203602
C       0.09935353      0.03152816     -0.50563673
C      -1.22591411      0.82898959     -0.56971825
N      -1.81574397     -0.10264905      0.41690909
C       1.13381710      0.61351703      0.37669007
N       2.32404277      0.08845343      0.43397129
O       2.75188663     -0.92399767     -0.19737526
H      -0.34688748     -1.59069009      1.02620421
H      -1.02973445     -1.86729969     -0.59424608
H       0.55289648     -0.24510522     -1.45594877
H      -1.19750582      1.87280582     -0.24749377
H      -1.67505572      0.78331181     -1.56743530
H      -2.76378691     -0.40141954      0.22676795
H       0.95754708      1.46635525      1.01637989
H       2.99327667      0.55034452      1.06096786
