15
b3lypvtz=-191223.26104767
N       2.22196017     -0.32183654     -0.05813463
C       0.90082484      0.05687779     -0.04886738
N       0.50688914      1.23659568      0.25208987
C      -0.93314596      1.33228644     -0.01424380
C      -1.41941856     -0.06822704     -0.38746625
C      -1.20412172     -1.15119713      0.62423062
C      -0.16422583     -0.91059608     -0.45132012
H       2.85140309      0.33872944      0.37109718
H       2.42030317     -1.28613634      0.15079218
H      -1.10641245      2.03672607     -0.83374936
H      -1.44946513      1.73338144      0.86238559
H      -2.20919080     -0.18857617     -1.11520453
H      -0.95550512     -0.87489266      1.64121042
H      -1.80419712     -2.04606106      0.52974715
H       0.02593827     -1.66210382     -1.20493594
