17
b3lypvtz=-217687.93616795
C      -1.50284544     -0.60357260     -0.81927160
C      -0.62858903      0.02654542      0.28003550
C      -0.87718235      1.54230786      0.38254493
C       0.82688800     -0.29561025      0.09730735
O       1.47168398      0.15773081     -1.04887494
C       1.56654950     -0.99329998      0.95828801
O       2.89241757     -1.28202234      0.78308517
H      -1.25868471     -0.20776936     -1.80892942
H      -1.36943970     -1.68470462     -0.85344850
H      -2.55811451     -0.39091037     -0.64074450
H      -0.91803997     -0.42271192      1.23298136
H      -1.93457479      1.74782907      0.55697281
H      -0.59638816      2.06291272     -0.53713400
H      -0.30145158      1.97884771      1.19849888
H       0.85712325      0.64624109     -1.60153875
H       1.16057946     -1.38849897      1.87596442
H       3.16996847     -0.89331428     -0.05593670
