22
b3lypvtz=-183437.22389089
C       2.39798084     -0.93976886      0.33483075
C       1.27481335     -0.14158786     -0.32348560
C       1.60059472      1.35230670     -0.32920262
N       0.02428750     -0.41521385      0.39158430
C      -1.22728492      0.02300596     -0.25121318
C      -1.82402750      1.23567214      0.47075420
C      -2.23112844     -1.13026849     -0.28747352
H       2.50998837     -0.64561965      1.38004813
H       2.19143965     -2.01243266      0.30462323
H       3.34664546     -0.77004329     -0.17568196
H       1.19938887     -0.46589666     -1.37664807
H       2.54232331      1.53264501     -0.85112280
H       1.69074914      1.72525437      0.69281211
H       0.82898750      1.93242903     -0.83578803
H      -0.02630542     -1.40673593      0.58372821
H      -1.01422898      0.31184645     -1.28978276
H      -1.11261769      2.05905577      0.51593021
H      -2.08568428      0.96826494      1.49633448
H      -2.72516795      1.59023792     -0.03551024
H      -1.84862455     -1.96922079     -0.87257770
H      -2.43751568     -1.48548788      0.72582762
H      -3.17845829     -0.81621737     -0.72737177
