16
b3lypvtz=-181159.495738
C       1.60061679      1.63084956     -0.22269100
C       0.92384929      0.52742632      0.10270980
C       1.58592921     -0.74525631      0.05333187
N       2.08483032     -1.78464854      0.02900333
C      -0.52693138      0.51052803      0.52357398
C      -1.44336355     -0.23711095     -0.45637435
C      -2.89802469     -0.25878901      0.00924688
H       1.12155738      2.60017995     -0.18896837
H       2.63768142      1.59485502     -0.52426901
H      -0.60407703      0.04260736      1.50983861
H      -0.86368578      1.54326728      0.63343640
H      -1.37372291      0.23645625     -1.43914044
H      -1.08107870     -1.26035956     -0.57991815
H      -3.52927188     -0.79167785     -0.70267544
H      -2.99584662     -0.75621422      0.97641770
H      -3.29732686      0.75229867      0.11450719
