16
b3lypvtz=-202028.826974334
C      -0.22796162     -0.59060490      0.06298529
C       0.77609888      0.45256135     -0.45479791
C       2.11529946     -0.11546705     -0.84128283
N       3.12451561     -0.05385186     -0.03766192
N       4.00520131      0.02572713      0.67811288
C      -1.61700469     -0.01026531      0.32922483
N      -2.23667034      0.46383341     -0.91400603
H      -0.31261513     -1.40468478     -0.66479916
H       0.15387989     -1.04211434      0.98239635
H       0.92036554      1.22263930      0.30774837
H       0.34042451      0.95530925     -1.31932890
H       2.29126197     -0.64329240     -1.76616423
H      -1.52625961      0.84758053      1.00129243
H      -2.21983109     -0.76068776      0.85904282
H      -2.49856975     -0.32252689     -1.49800435
H      -3.08813494      0.97584432     -0.71876768
