17
b3lypvtz=-194363.31302706
C      -0.90513646      1.35089891      0.30094204
C      -0.32909919     -0.05533488      0.15314745
C       0.54261485     -0.51374599      1.31910479
C       1.68599120     -0.50171939      0.63492145
C       1.02008390     -0.11741348     -0.67304546
O       1.37595634      1.11231574     -1.28638631
C      -1.40069259     -1.04883770     -0.29458330
H      -1.32320802      1.69868306     -0.64557043
H      -0.14285797      2.06288617      0.61125289
H      -1.70514874      1.35299855      1.04534958
H       0.28809329     -0.78290337      2.33752533
H       2.71319253     -0.72787234      0.89100861
H       1.01113016     -0.92214269     -1.41727282
H       2.20740377      0.99316737     -1.75477055
H      -0.98794003     -2.05114828     -0.42282566
H      -1.84658314     -0.73925766     -1.24249166
H      -2.20379990     -1.11057401      0.44369407
