16
b3lypvtz=-204451.78132022
C      -2.07101611      0.48508258      0.39254971
C      -0.81601212      0.33700062     -0.46235787
C       0.39302029      1.08706869      0.04060708
C       1.44299220      0.27532947      0.10026972
C       1.08844738     -1.12012023     -0.34654924
N      -0.36939945     -1.08439117     -0.53524516
O       2.71367390      0.62511582      0.44262549
H      -1.87132423      0.19734822      1.42757025
H      -2.87647400     -0.14149915      0.00309558
H      -2.42177931      1.51818644      0.39056745
H      -1.06729561      0.67489830     -1.47733983
H       0.40370543      2.14646263      0.24950610
H       1.60954812     -1.36258765     -1.28356034
H       1.38338027     -1.88190489      0.38400012
H      -0.81272730     -1.59773457      0.21442782
H       3.27126056     -0.15825513      0.45983314
