14
b3lypvtz=-226988.64099026
N       2.32817600     -0.01930730     -0.17220442
C       0.94358305      0.06365037      0.00019863
C       0.23165451      1.18611947      0.15914274
O      -1.15410912      1.22796156      0.12620317
C      -1.71624753      0.01515629     -0.35081199
C      -1.01416517     -1.17140628      0.28759492
O       0.36562424     -1.17639504     -0.08428315
H       2.76248009     -0.66038922      0.48077021
H       2.77983696      0.88256477     -0.13907410
H       0.68471298      2.15447932      0.29714422
H      -2.77508781      0.03150787     -0.09416471
H      -1.61092334     -0.04301657     -1.44048886
H      -1.10163801     -1.11444747      1.37694342
H      -1.42938983     -2.11683078     -0.05814307
