14
b3lypvtz=-203680.39363781
C       3.05920395     -0.27124949     -0.19315694
C       1.75305975     -0.32607788     -0.41665539
C       0.72105145     -0.24439112      0.66762131
O      -0.12153820      0.91761482      0.56687069
C      -1.10737358      0.87181987     -0.43409227
C      -2.13044729     -0.16550740     -0.19747152
N      -2.91889543     -0.98243462     -0.01295068
H       3.77898424     -0.35398101     -0.99676067
H       3.45711683     -0.14806634      0.80749370
H       1.39409115     -0.45908725     -1.43259188
H       0.09634556     -1.14501065      0.68037674
H       1.20203324     -0.15534715      1.64030055
H      -0.68814083      0.71336020     -1.43399299
H      -1.59736186      1.84571801     -0.43345365
