14
b3lypvtz=-203683.52149016
C      -1.46682807      0.15828263     -0.67969503
C      -1.28191528     -0.92734908      0.36948592
C      -0.12999015     -0.09617978     -0.07603771
C       0.67028429      0.87840313      0.79147118
N       2.06576923      0.69789156      0.35546601
C       2.03590490     -0.18234789     -0.54986858
O       0.85244127     -0.73822047     -0.91395580
H      -1.98347573      1.06767414     -0.40129922
H      -1.62136921     -0.16274606     -1.70033317
H      -1.67216048     -0.75991069      1.36502011
H      -1.31661938     -1.95314433      0.03008731
H       0.58533062      0.65773521      1.85786509
H       0.36855391      1.91761416      0.64289253
H       2.89407409     -0.55770248     -1.09109864
