18
b3lypvtz=-181883.24908839
C       2.56278516     -0.42015194     -0.08591889
C       1.45116817      0.06023712     -0.62568346
C       0.14656707      0.23803348      0.08337677
C      -0.20222802      1.69337667      0.34266820
C      -0.35003933     -0.81858826      1.00923932
N      -0.87890297     -0.72540595     -0.34650156
C      -2.26500176     -0.31812581     -0.51593231
H       3.47731642     -0.50738584     -0.65776552
H       2.59916859     -0.74829709      0.94601772
H       1.45410288      0.38111073     -1.66429778
H      -0.25272633      2.25299352     -0.59477864
H      -1.15280104      1.80978769      0.85984825
H       0.57191328      2.15371468      0.95798748
H      -0.99421846     -0.49476875      1.82302886
H       0.24995434     -1.69348944      1.22896183
H      -2.38561057      0.17244419     -1.48307649
H      -2.64586944      0.35349980      0.26373796
H      -2.88735899     -1.21437179     -0.51672774
