15
b3lypvtz=-193596.53587639
C      -1.90458991      0.57218999     -1.58238630
C      -1.29413058     -0.03237003     -0.55731183
C      -1.97621837     -1.07184401      0.29895696
C       0.05384336      0.28309986     -0.20658088
C       1.18583266      0.51655752      0.13675818
C       2.56936328      0.78403016      0.52219008
O       3.26492295     -0.36705303      0.99387398
H      -2.92957051      0.33604276     -1.83525482
H      -1.39974711      1.31440124     -2.18410213
H      -2.01126834     -0.74929828      1.34139003
H      -2.99301552     -1.25405304     -0.04609191
H      -1.42448290     -2.01374665      0.27574503
H       2.59371559      1.50094217      1.34528671
H       3.09813703      1.24543755     -0.32088726
H       3.16710837     -1.06423621      0.33731416
