19
b3lypvtz=-195154.48223655
C       2.56958579     -0.38466350     -0.29696733
C       1.27315017     -0.99010298      0.24203153
C       0.00001163     -0.23043162     -0.18003931
C      -0.00001159      1.14267661      0.44978043
O      -0.00006689      2.19175497     -0.14111018
C      -1.27310522     -0.99013881      0.24203762
C      -2.56955993     -0.38474387     -0.29696505
H       2.56809625     -0.36301326     -1.38839815
H       2.71526711      0.64004969      0.04900666
H       3.43347634     -0.96840887      0.02391087
H       1.31262553     -1.04152840      1.33520973
H       1.17924150     -2.02242127     -0.10414191
H       0.00000580     -0.09032451     -1.26427449
H       0.00001415      1.12632406      1.56448130
H      -1.17916372     -2.02245643     -0.10412908
H      -1.31257845     -1.04155838      1.33521617
H      -3.43343171     -0.96851322      0.02392013
H      -2.71527202      0.63996805      0.04899912
H      -2.56807274     -0.36310425     -1.38839605
