10
b3lypvtz=-225484.69700356
N      -2.67853842     -0.31765500     -1.12972865
C      -1.74570171     -0.31634063     -0.45740137
C      -0.57553982     -0.27646978      0.40856738
C       0.49217852      0.79513111      0.10120241
C       1.38671973     -0.40867035     -0.16818388
O       2.50754288     -0.62395095     -0.47396832
O       0.38963744     -1.33350927      0.09451739
H      -0.88044037     -0.34408377      1.45137932
H       0.30340628      1.41686803     -0.76995632
H       0.80063547      1.40868063      0.94367203
