14
b3lypvtz=-180368.72521038
C      -1.61153615      0.49138298     -0.31547456
C      -0.98271826     -0.49959238      0.59416578
C       0.07235466     -1.41282072      0.11668266
C       1.23757782     -0.93862966     -0.34269110
C       1.52871565      0.48553289     -0.27487907
C       0.63650829      1.33944645      0.24484962
N      -0.65612402      0.97297556      0.68569801
H      -1.28953988      0.48450526     -1.35025136
H      -2.63396258      0.80405968     -0.14514744
H      -1.58490629     -0.85631226      1.42311284
H      -0.11562939     -2.47709637      0.18293279
H       2.00577312     -1.61451803     -0.69468530
H       2.51147532      0.84258047     -0.55151015
H       0.88201172      2.37858613      0.42709729
