16
b3lypvtz=-204435.65073111
C       2.31916408      0.69048447     -0.63349779
N       1.24873141      0.02800543     -0.55510225
C       0.22161380      0.46894024      0.35934184
C      -0.24218183     -0.69631814      1.28021566
C      -1.34666097     -1.05090521      0.25323696
C      -1.17394415      0.36723896     -0.34251014
O      -1.24672121      0.56822046     -1.72728578
H       3.09754513      0.37228147     -1.32346097
H       2.51616667      1.58625308     -0.03249091
H       0.47074157      1.42220738      0.84051084
H       0.50627873     -1.45565311      1.49532533
H      -0.64531112     -0.31479482      2.21769808
H      -2.33220846     -1.32446985      0.62707027
H      -1.00745207     -1.80982038     -0.45099303
H      -1.87033954      1.07120950      0.11347228
H      -0.51532203      0.07702051     -2.12153040
