12
b3lypvtz=-226224.07127986
C      -1.82022429     -0.02856701     -0.34745043
C      -0.42394025     -0.41303966      0.00311063
C       0.74862136      0.39559389     -0.07883460
C       1.75013672     -0.41005359      0.34891039
O       1.24417729     -1.62098629      0.67123724
N      -0.12967229     -1.60778824      0.44760975
O       0.73064221      1.68563933     -0.51151213
H      -2.48874072     -0.87164336     -0.18738857
H      -2.15561788      0.81099456      0.26362280
H      -1.88505911      0.28366800     -1.39096736
H       2.81120918     -0.27921336      0.47395543
H       1.61846779      2.05539574     -0.48746665
