16
b3lypvtz=-202041.8414016
C      -0.63179640      1.94881305     -0.00823584
C      -0.72628217      0.44494022     -0.02849004
C       0.48624270     -0.35813953     -0.08721990
C       1.73202249      0.12723596      0.07335537
N       2.89484887     -0.61103345      0.04812131
N      -1.92044320     -0.03769161     -0.01663297
N      -2.06920648     -1.42455334     -0.03258204
H      -1.63532031      2.36702372     -0.02238902
H      -0.07635231      2.32734957     -0.87016772
H      -0.12397558      2.30817454      0.89134058
H       0.37261168     -1.41050509     -0.32321118
H       1.89006249      1.17467499      0.29886831
H       3.74402282     -0.11961745     -0.17264750
H       2.84473801     -1.53268599     -0.35583883
H      -1.44498405     -1.90211459      0.61232614
H      -3.02414257     -1.62835701      0.22401732
