19
b3lypvtz=-195142.2190699
C      -2.86614276      0.22141528     -0.00003623
C      -1.62036347     -0.24056586      0.00001420
O      -0.54151775      0.58027236     -0.00008197
C       0.79580331      0.00573774      0.00001289
C       1.01482242     -0.82533226     -1.26683220
C       1.70587100      1.23116790     -0.00014664
C       1.01479411     -0.82498080      1.26709325
H      -3.07645355      1.28170050     -0.00015563
H      -3.69355243     -0.47113131      0.00004222
H      -1.41848737     -1.30568511      0.00013496
H       2.04796703     -1.17219323     -1.31407746
H       0.37006973     -1.70403698     -1.29433033
H       0.81222287     -0.22394474     -2.15334902
H       1.51860186      1.84159254     -0.88344706
H       1.51854465      1.84185830      0.88295727
H       2.75386493      0.93007097     -0.00006541
H       2.04793401     -1.17184496      1.31444252
H       0.81219655     -0.22334351      2.15343987
H       0.37002585     -1.70366584      1.29483280
