12
b3lypvtz=-223834.04118263
C       3.05869487      0.27243681      0.00001213
N       2.06755412     -0.52118434     -0.00003827
N       0.83882543      0.16568624      0.00003599
C      -0.16250633     -0.61793019      0.00001773
C      -1.56437848     -0.08130957      0.00005834
N      -1.66624599      1.26794447     -0.00000700
O      -2.50939881     -0.85071156     -0.00002356
H       4.05274926     -0.15922249     -0.00008688
H       2.94113402      1.35552084      0.00004579
H      -0.06584560     -1.70125106     -0.00001387
H      -0.83523841      1.83385482      0.00000902
H      -2.57787508      1.68983503     -0.00007643
