13
b3lypvtz=-239682.95619141
C      -1.81251200     -0.35201943     -0.28149433
C      -0.52051140      0.42193494     -0.41218397
N      -0.35231080      1.52906028     -1.00293934
N       0.54658860     -0.24057565      0.21691402
C       1.85541156      0.17706277      0.41588510
N       2.88153745     -0.51985281      0.60985853
F       1.95999330      1.49841021      0.46636105
H      -1.70597162     -1.36341326     -0.68204028
H      -2.60954772      0.14716981     -0.82665395
H      -2.10424631     -0.44021736      0.76701517
H      -1.23324787      1.86759804     -1.37826022
H       0.39474862     -1.21209740      0.42693048
H       2.70006818     -1.51306014      0.50910980
