15
b3lypvtz=-219531.72152091
C      -2.62829764     -0.73226022     -0.00006306
C      -1.72194745      0.45350291     -0.00006290
C      -0.37934452      0.44209811      0.00002148
C       0.42037935      1.72125444      0.00001700
N       0.25377185     -0.81284442      0.00013064
C       1.46946941     -1.07545803      0.00011460
F       2.50012299     -0.17955145     -0.00003540
H      -2.06707623     -1.66287977      0.00014093
H      -3.28400689     -0.71659547      0.87565303
H      -3.28371897     -0.71681837     -0.87600024
H      -2.20239886      1.42605051     -0.00015046
H      -0.24875563      2.58064088     -0.00001639
H       1.06672494      1.78788306      0.87648252
H       1.06677615      1.78785149     -0.87641235
H       1.86472250     -2.08420167      0.00021858
