18
b3lypvtz=-233525.49077658
C      -2.23337435     -0.82055773     -0.29357932
C      -0.82781385     -0.20816961     -0.26317352
C      -0.91115254      1.22701400      0.26604927
O       0.30464315      1.96719738      0.18953074
C       0.12898553     -1.11953405      0.52486170
C       1.59853958     -0.74351009      0.48580299
F       2.03306386     -0.64654349     -0.84763919
H      -2.21331965     -1.82792327     -0.71118770
H      -2.91577067     -0.22196773     -0.89917265
H      -2.65493022     -0.88865209      0.71281876
H      -0.45985840     -0.15739542     -1.29401006
H      -1.70943249      1.75688210     -0.26837689
H      -1.18198299      1.22141391      1.32500832
H       0.62947538      1.92988497     -0.71610450
H      -0.17620009     -1.15273199      1.57730997
H       0.02585153     -2.13851186      0.14106492
H       2.20776389     -1.51329326      0.96376628
H       1.78762834      0.22028425      0.95220689
