13
b3lypvtz=-211337.12255912
C       1.11441316      1.81357638      0.00011788
N       0.02199204      1.15443380      0.00012931
C      -0.08820085     -0.23219646      0.00009738
C      -1.37173587     -0.72800338      0.00006280
N      -2.46929053      0.03650617     -0.00003102
N       0.87605958     -1.23110851      0.00011183
N       2.08560133     -0.88334737      0.00013737
H       2.09760363      1.35862451      0.00005907
H       1.03713338      2.89955641      0.00014788
H      -1.50780932     -1.79986149      0.00006533
H      -3.38994352     -0.35762700      0.00028324
H      -2.34443593      1.03712009      0.00014488
H       2.62965790     -1.75399816      0.00015506
