17
b3lypvtz=-194351.01672792
C       1.95375931     -0.69192085     -0.28942770
C       0.55579341     -0.19583072     -0.05410913
C      -0.13471675      0.07294055      1.32136939
C      -1.18008341      0.41912462      0.24738801
C      -0.05728598      1.15415344     -0.53742774
C      -0.77192152     -0.88225489     -0.49859891
O      -2.45527475      0.87244161      0.55671072
H       2.16209558     -0.78559696     -1.35745225
H       2.10412285     -1.67204903      0.16808387
H       2.69017601     -0.00715514      0.13639331
H      -0.34288148     -0.80016725      1.94040793
H       0.25562843      0.90552691      1.90726229
H       0.34126454      2.06162198     -0.08288212
H      -0.19680775      1.26405414     -1.61444191
H      -0.96246265     -0.91697755     -1.57292387
H      -1.02204830     -1.82390429     -0.00894870
H      -2.93935755      1.02599343     -0.26140321
