16
b3lypvtz=-204439.7468996
C      -1.91858516      0.79486174     -0.29962816
C      -1.07611905     -0.35609296      0.19317368
C      -0.05264630     -0.99787555     -0.76455595
C       0.97995711     -0.65210117      0.33468859
C       2.15909424      0.19225173     -0.05576129
N       2.33332414      1.41072899      0.22883826
O      -0.00915687      0.06980189      1.09452178
H      -2.42245636      1.28274323      0.53627131
H      -1.30475149      1.53562403     -0.81331732
H      -2.68270764      0.43361328     -0.99193316
H      -1.70169320     -1.09751302      0.69963875
H       0.08962944     -0.44504957     -1.69185050
H      -0.18825135     -2.05371124     -0.98460070
H       1.33441404     -1.53413167      0.88237026
H       2.92332370     -0.32617617     -0.64253933
H       1.53672474      1.74312648      0.78098376
