14
b3lypvtz=-203664.88819246422
C       1.97766187     -0.10659356      0.12326499
C       0.51765338      0.16677725      0.04571560
C      -0.23735524      1.25384945      0.07069351
C      -1.71991673      0.93125884     -0.04936922
O      -2.60003599      1.79588971     -0.04789681
C      -1.77335914     -0.46187797     -0.14891415
N      -0.40424658     -1.00910088     -0.09615734
H      -0.14992309     -1.53154072     -0.93941517
H      -0.25794379     -1.64413765      0.69379342
H       2.23838810     -0.72871841      0.98520276
H       2.51738336      0.83338689      0.22101786
H       2.35339292     -0.61218759     -0.77187849
H       0.12690387      2.26574017      0.16440696
H      -2.58860292     -1.15274551     -0.25046393
