13
b3lypvtz=-213721.7708841
C      -2.45136161      0.58324456     -0.49088316
N      -1.20144685      0.03850234     -0.98802134
N      -0.09957814      0.46035102     -0.31719684
C       0.95831018     -0.25008971     -0.39730704
C       2.17259785      0.14413616      0.22307976
C       3.23417179      0.40575477      0.72424535
O       0.95816636     -1.43995282     -1.09865803
H      -3.25035922      0.29819278     -1.17496030
H      -2.38016951      1.66944637     -0.47176696
H      -2.70634419      0.23593312      0.51734930
H      -1.21581075     -0.95190202     -1.20402405
H       4.16022724      0.66286458      1.17450928
H       1.82159684     -1.85648115     -1.01114996
