9
b3lypvtz=-212200.58153771178
C       1.96765681     -0.05153076     -1.23402156
C       0.96981195      0.05931899     -0.57454933
C      -0.21111655      0.15289756      0.19123429
N      -0.47136214      1.29447112      0.81093981
N      -0.73086555      2.24311517      1.35257364
C      -1.20290454     -0.91216078      0.37497796
O      -1.11252690     -2.00689878     -0.12245767
H       2.84774623     -0.15586137     -1.81812612
H      -2.05643931     -0.62335114      1.01942899
