18
b3lypvtz=-181905.36717837
C      -1.75702307     -1.49889461      0.34621971
N      -0.85395191     -1.15501145     -0.46653454
C       0.08349030     -0.15745704     -0.11715577
C      -0.23763621      1.13101431      0.04995449
C      -1.59449259      1.76040928     -0.06322326
C       1.49103369     -0.70826846     -0.08411003
C       2.61592552      0.29506802      0.14710191
H      -1.85717887     -1.07158347      1.34933680
H      -2.47653839     -2.25989434      0.05077181
H       0.57900701      1.81925140      0.22844742
H      -1.56865449      2.59648319     -0.76746843
H      -2.35496175      1.05976424     -0.40349697
H      -1.92544558      2.17263528      0.89454092
H       1.65185270     -1.23958207     -1.02689047
H       1.52935569     -1.48440805      0.68880752
H       3.57818972     -0.21841620      0.15323872
H       2.64758147      1.05028947     -0.63947845
H       2.51061975      0.80921750      1.10363159
