10
b3lypvtz=-225441.65792342
C       2.22000992     -0.08478700     -0.58099242
C       1.04181613     -0.06124603     -0.37338474
C      -0.39603747     -0.04570177     -0.06484921
C      -0.89534912      1.35784907     -0.00485493
N      -1.30943425      2.42959707     -0.00379570
O      -1.04675976     -0.74872573     -1.09397484
O      -0.66993421     -0.58831469      1.20523730
H       3.26449890     -0.10140035     -0.77363183
H      -1.99632882     -0.72025593     -0.91584798
H      -0.21248131     -1.43701464      1.26441148
