10
b3lypvtz=-223064.16714721
C       1.49766921      0.33215012     -0.25992214
N       0.43514756     -0.37761887     -0.28422150
N      -0.69853013      0.33876151      0.05914302
C      -1.74246107     -0.39743947      0.02538970
O      -2.94203374      0.08701517      0.32073760
C       2.75305913     -0.26277251     -0.59042556
N       3.79502994     -0.68372122     -0.84624311
H       1.48978871      1.38751072      0.00577902
H      -1.74413493     -1.45035696     -0.23875036
H      -2.84353467      1.02647153      0.54253630
