10
b3lypvtz=-220658.33121585
N       2.61337040     -0.33435521     -0.00005189
C       1.66231390      0.50247146     -0.00010077
C       0.22535269      0.19705407     -0.00007305
N      -0.29458871     -1.02703359      0.00035894
N      -1.58404787     -0.75734046     -0.00011869
H      -2.29474346     -1.47353742     -0.00025229
N      -1.88236285      0.53440256      0.00032202
N      -0.73898602      1.15505985      0.00025764
H       2.25637339     -1.29261495      0.00011775
H       1.89074254      1.56708069     -0.00020666
