16
b3lypvtz=-204460.89897012
C      -1.99872835     -1.07127091      0.54809060
C      -1.24648139     -0.20662424     -0.13089210
C      -1.74369040      1.13016351     -0.60901181
N       0.06311527     -0.53741602     -0.54717774
C       1.08821712     -0.06314920      0.00905762
C       2.47626323     -0.38979314     -0.45782137
O       1.00578521      0.78210928      1.08411071
H      -3.01708416     -0.82693425      0.81378696
H      -1.61400131     -2.03574336      0.84865869
H      -1.64844561      1.20338627     -1.69499928
H      -1.15279219      1.93940544     -0.17439746
H      -2.78828821      1.27724598     -0.33973817
H       3.00542042      0.51891179     -0.75666863
H       3.05027365     -0.86135461      0.34416263
H       2.42808104     -1.06716240     -1.30442628
H       1.88830866      1.02897585      1.37929765
