17
b3lypvtz=-194363.63163245
C       2.49891179      1.06741034      0.02662785
C       1.31902137      0.52120055     -0.25528372
C       0.69811629     -0.56368669      0.52589014
C      -0.17113286     -1.61425240     -0.14398673
C      -0.79842782     -0.62957799      0.79156230
C      -1.78686450      0.41309467      0.32319359
O      -1.68549200      0.60821412     -1.08716679
H       2.91478167      1.85767635     -0.58385933
H       3.09196117      0.74095514      0.87326473
H       0.75288848      0.87829140     -1.10749968
H       1.31093052     -0.92238378      1.34484265
H      -0.36832487     -1.47793369     -1.19732229
H      -0.06226758     -2.64242747      0.17244738
H      -1.05259111     -1.00403747      1.77655860
H      -2.79686984      0.07231420      0.58294844
H      -1.60714706      1.35569136      0.85474882
H      -2.25749366      1.33935136     -1.33506596
