16
b3lypvtz=-204437.12717305
C       1.63803312     -0.30696556      0.66988784
C       0.45038698      0.37448124      0.02656523
C       0.65283467      1.29464009     -1.10926038
O       0.40735139      1.78974606      0.20931414
C      -0.87237307     -0.32991052      0.15193452
C      -1.93050945      0.24978493      0.72127091
N      -0.84184849     -1.65563490     -0.30104667
H       2.54158576      0.27848053      0.50424496
H       1.78435352     -1.31063215      0.27140561
H       1.47358907     -0.39786996      1.74479981
H       1.65658498      1.46258737     -1.48886718
H      -0.15546019      1.45544278     -1.81546115
H      -2.88055219     -0.26302609      0.79930254
H      -1.85094017      1.24453237      1.12832569
H      -1.75123914     -2.08956611     -0.35676936
H      -0.32179679     -1.79609008     -1.15564651
