13
b3lypvtz=-237024.21107563
C       2.73586889      0.73481253      0.21810695
N       1.47747509      0.78181145      0.34539719
O       0.89106871     -0.40558425     -0.10296089
C      -0.48863941     -0.40306836     -0.02122428
C      -1.24888356      0.61798414      0.37970324
O      -2.62115784      0.39383735      0.52513124
N      -0.96798347     -1.62956404     -0.46729873
H       3.25946307     -0.12533775     -0.19086093
H       3.28396601      1.60898436      0.54206977
H      -0.85061734      1.57724175      0.66253807
H      -3.09742747      0.99361225     -0.05750333
H      -1.94790634     -1.73293046     -0.24526938
H      -0.42522634     -2.41179896     -0.12678221
