13
b3lypvtz=-237096.18931765
C      -0.55876835      1.89054984      0.00003808
N       0.07324595      0.56562556      0.00002229
C       1.48778338      0.49790178      0.00002462
N       2.28200330     -0.48051838      0.00003559
C      -0.81378848     -0.48830918      0.00002658
O      -2.01482611     -0.35177937      0.00003051
O      -0.21822866     -1.70687868     -0.00002291
H       0.22163442      2.64619369     -0.00000213
H      -1.18338835      2.01718187     -0.88235212
H      -1.18331531      2.01720181      0.88247782
H       1.90399891      1.50338261      0.00001334
H       1.80684130     -1.37754420      0.00004486
H      -0.94323600     -2.34731935     -0.00003451
