16
b3lypvtz=-204451.23436413
C       1.82172795     -0.58965191     -0.16733288
N       0.51422008     -0.25136250      0.37306187
C      -0.59034799     -1.08184634     -0.15142060
C      -1.84710702     -0.18799028     -0.07064839
C      -1.24570861      1.19316303     -0.00128857
C       0.05776982      1.07599556      0.26210612
O       0.93743374      2.09228794      0.45668735
H       1.85027453     -0.53538329     -1.26626970
H       2.59195797      0.07343803      0.22466849
H       2.08084862     -1.60467389      0.13356739
H      -0.37820493     -1.33445115     -1.19930215
H      -0.67703524     -2.01177319      0.41027963
H      -2.42977312     -0.41091782      0.83061662
H      -2.50812866     -0.35319313     -0.92342777
H      -1.79528446      2.11904255      0.01115831
H       1.61735734      1.80731638      1.07754426
