16
b3lypvtz=-181128.1597723
C      -2.29295198      1.06919029     -0.47599611
C      -1.54453887     -0.25486758     -0.40130127
N      -0.20109705     -0.07440722      0.12572382
C       0.50222292     -1.09015939      0.69848795
C       1.84431796     -1.13337766      0.87233148
C       2.70985899     -0.11690340      0.41190623
C       3.42875169      0.76244679      0.00415781
H      -1.77886452      1.77300193     -1.13418979
H      -2.37413205      1.52601748      0.51057249
H      -3.29672991      0.91874033     -0.87506063
H      -1.52543209     -0.72538287     -1.39331801
H      -2.06989919     -0.94389953      0.26314010
H       0.35672009      0.64374279     -0.31470036
H      -0.10556245     -1.90778578      1.06734121
H       2.27005074     -1.97429380      1.40111289
H       4.07728571      1.52793759     -0.34027813
