15
b3lypvtz=-191197.40924495
C      -2.63989135     -0.11498351     -0.51337281
C      -1.67136669      0.24243282      0.09679042
C      -0.49034668      0.68893546      0.82841062
C       0.80523128      0.59705268      0.01779779
N       1.39230919      1.59635199     -0.51842441
N       1.38388377     -0.64471135     -0.07298106
C       0.69953497     -1.91822904      0.05687606
H      -3.49853253     -0.42648938     -1.05380910
H      -0.62077593      1.73077139      1.12421065
H      -0.39182815      0.11169021      1.75198083
H       0.90200821      2.46252577     -0.32214422
H       2.18826480     -0.63480949     -0.68209249
H       0.04224755     -2.14744211     -0.78796518
H       1.44852188     -2.70489857      0.13809445
H       0.09924267     -1.94717886      0.96497144
