16
b3lypvtz=-204439.60077774
C       1.31331435     -0.69580901      0.43504621
C       0.20078716     -1.48860658     -0.26959024
C      -1.05705076     -0.66887907     -0.42052403
O      -1.53261416     -0.01256998      0.76040309
C      -0.99614667      0.79536349     -0.30282253
C       0.32840185      1.48700001     -0.01930049
N       1.51786850      0.63924273     -0.12381526
H       2.25397066     -1.24583365      0.38195055
H       1.06552715     -0.58181294      1.49227666
H       0.53488386     -1.78754550     -1.26929409
H      -0.02264302     -2.40978525      0.27703820
H      -1.84500778     -1.10942105     -1.02643592
H      -1.75053815      1.39176689     -0.80985459
H       0.27958967      1.90664714      0.99075839
H       0.44859248      2.32830482     -0.70418377
H       1.78848486      0.55696796     -1.09715518
