17
b3lypvtz=-194363.79165991
C      -2.48802487     -1.27518617      0.94717428
C      -2.08338917     -0.88506126     -0.48251092
C      -0.69520323     -0.44392627     -0.58701612
C       0.45026101     -0.08393350     -0.64496145
C       1.83353629      0.37399977     -0.71720652
C       2.13043331      1.61246772      0.14081605
O       1.90415720      1.41585652      1.52688811
H      -1.87484132     -2.09899078      1.31231548
H      -3.53328968     -1.58627695      0.97586553
H      -2.35943905     -0.43425685      1.62815115
H      -2.24233704     -1.73445299     -1.15329447
H      -2.74038836     -0.08851176     -0.84352105
H       2.50871026     -0.43606460     -0.41811738
H       2.09133904      0.61069101     -1.75510688
H       3.16331281      1.92876064     -0.04949388
H       1.47087403      2.42897598     -0.15152486
H       2.46428877      0.69590948      1.83344293
