15
b3lypvtz=-216951.14965914
C      -0.19210125      1.90937857      0.03521682
C       0.10533271      0.62815335     -0.18275984
C       1.48415492      0.14393159     -0.55109609
C       2.20218208     -0.58103997      0.59609339
C      -0.94637893     -0.42339471     -0.08015052
O      -0.77047270     -1.58790989     -0.35192723
O      -2.15016682      0.03508081      0.34358782
H       0.56477562      2.67787508     -0.05828925
H      -1.18880921      2.22353638      0.30695460
H       2.07757227      1.00175555     -0.87164747
H       1.40538108     -0.53436909     -1.40257464
H       1.64561655     -1.46366377      0.90857327
H       3.19453657     -0.90485131      0.27893334
H       2.32108292      0.07532675      1.45979821
H      -2.74049081     -0.73187935      0.35441458
