17
b3lypvtz=-194374.90899426
C       2.87455034     -0.60886175     -0.12201863
C       1.73494199     -0.12851945      0.35171215
O       0.54142671     -0.35059264     -0.27964476
C      -0.46836235      0.57971884     -0.17123267
C      -0.27778143      1.85275549      0.17121547
C      -1.78999742     -0.03887996     -0.51612274
C      -2.22697712     -1.13396610      0.46561803
H       3.78530304     -0.48261924      0.44346242
H       2.91666619     -1.14316810     -1.06058914
H       1.65827798      0.41919492      1.28433426
H       0.70034253      2.26639912      0.36499215
H      -1.12513851      2.51750464      0.23966996
H      -2.53960726      0.75104934     -0.56021118
H      -1.71384020     -0.46511043     -1.52079091
H      -2.35187563     -0.72897757      1.47099101
H      -1.48938368     -1.93445197      0.51135400
H      -3.17826718     -1.56796413      0.15529557
