14
b3lypvtz=-226952.0508877373
C      -2.26947151     -0.16401400      0.00236011
C      -0.85217135     -0.36319088     -0.40722797
C       0.24492503      0.17681166      0.15609987
C       1.65398162     -0.06171227     -0.32129338
O       2.45206253     -0.75049054      0.63118963
N       0.02586712      1.03532578      1.26728414
O       1.04528350      1.47139787      1.78055306
H      -2.71463865     -1.12719170      0.26907933
H      -2.85073399      0.21490092     -0.84317714
H      -2.36561690      0.51789732      0.84101205
H      -0.69162747     -1.02317671     -1.25509136
H       1.63161416     -0.68116830     -1.21742845
H       2.10894473      0.89865096     -0.58877066
H       2.58158116     -0.14404011      1.36921926
