15
b3lypvtz=-214521.53943949
C      -1.55617481      1.47090102     -0.00001524
C      -1.19416939      0.18578122      0.00000985
O      -2.08708978     -0.85000912      0.00003295
C       0.21617315     -0.29804222      0.00002099
N       0.52006513     -1.53214016      0.00002710
C       1.33375604      0.74024269      0.00001538
N       2.68834560      0.21776055      0.00000461
H      -2.59754066      1.76757350     -0.00001580
H      -0.82163216      2.25868474     -0.00003314
H      -2.98486243     -0.50222792      0.00002086
H      -0.32097670     -2.10847179      0.00002925
H       1.20773766      1.38826367      0.87182425
H       1.20772952      1.38828103     -0.87177905
H       2.80798621     -0.39263904     -0.80125404
H       2.80799761     -0.39264218      0.80125902
