16
b3lypvtz=-204454.67247599
C       2.05101901     -1.11579753      0.00816687
C       1.47790914      0.23965431      0.27519696
C       0.29449128      0.69080485     -0.12738390
C      -0.26434505      2.05691183      0.11197518
O      -0.53137969     -0.11015060     -0.93205126
C      -1.51894836     -0.84083712     -0.33006327
N      -1.75107031     -1.02992872      0.89093193
H       1.39409816     -1.71768476     -0.61585408
H       3.01771784     -1.03179992     -0.49493848
H       2.22894498     -1.65675571      0.94131751
H       2.09157799      0.93188568      0.84046189
H      -1.22430483      2.00435802      0.63116252
H       0.41961837      2.65850330      0.70805791
H      -0.44025634      2.56506669     -0.83908387
H      -2.13726068     -1.29246057     -1.10000060
H      -1.07336050     -0.55998375      1.49162670
