16
b3lypvtz=-204455.8867131
C      -2.30622221     -0.54259606      0.48565761
C      -1.17166974     -0.14396031     -0.45080327
C       0.07444400     -0.97563238     -0.34364219
C       1.11449047     -0.20689877     -0.01942651
N       2.42898972     -0.53882198      0.27077900
C       0.66131807      1.22188483      0.10758244
O      -0.73536140      1.19811473     -0.13703205
H      -3.13131832      0.16624543      0.40285023
H      -1.95974019     -0.55889232      1.51972592
H      -2.68176801     -1.53543439      0.22766756
H      -1.55957839     -0.13443508     -1.47951096
H       0.08814075     -2.04348536     -0.50648937
H       2.72099830     -1.45181019     -0.04159498
H       3.11017405      0.16782614      0.03820563
H       0.86761510      1.62652496      1.10637947
H       1.16459781      1.87307776     -0.62258752
