18
b3lypvtz=-181899.90089942
C       2.77961062     -0.15584008     -0.14445599
C       1.43166348     -0.67578963      0.26136157
C       0.28811853     -0.00847996      0.13160564
N      -0.02773011      1.26708163     -0.38430864
C      -1.40487997      1.21545477      0.15060334
C      -1.16945364     -0.28954055      0.48186406
C      -1.90042230     -1.29615271     -0.39658395
H       3.43419992      0.01089725      0.71718436
H       2.70134149      0.78838467     -0.68611757
H       3.29758640     -0.86133616     -0.80013367
H       1.38166302     -1.66863663      0.69317509
H       0.56902067      2.06522288     -0.22196522
H      -2.17536060      1.43405687     -0.59139539
H      -1.56870409      1.83540138      1.03564714
H      -1.32042767     -0.52614508      1.53557533
H      -1.52401027     -2.30603840     -0.22672999
H      -1.76325636     -1.06133806     -1.45334054
H      -2.97159511     -1.29721118     -0.18199959
