16
b3lypvtz=-202049.44508449
C       1.40149698      1.36843139      0.56660330
C       1.00308924      0.23592954     -0.38759823
N       1.99813961     -0.83171883     -0.32300913
C      -0.37005520     -0.31023169     -0.00822210
N      -0.57700623     -1.41584605      0.57502618
C      -1.55092537      0.55137628     -0.35620962
N      -2.75536116      0.28588412     -0.07678793
H       1.52332232      0.97738293      1.57723999
H       0.64754747      2.15463972      0.59039605
H       2.34383855      1.82000853      0.25096798
H       0.90737416      0.66520572     -1.39628966
H       1.91970194     -1.45689273     -1.11630785
H       2.93646144     -0.45322472     -0.32609827
H       0.31706504     -1.88176533      0.74794251
H      -1.33732287      1.47327326     -0.90075528
H      -2.78524694     -0.60790314      0.42695106
