12
b3lypvtz=-247137.78329944
N      -0.32167059      0.34407112     -1.65429046
C      -0.85779485      0.19673139     -0.51069357
O      -2.18324487      0.35543961     -0.28633700
C      -0.04281654     -0.14432244      0.67142061
O      -0.79991619     -0.20267236      1.82499208
N       1.20900554     -0.35448591      0.75071743
N       1.99782767     -0.40042977     -0.34859124
H      -1.01660936      0.59670515     -2.35379751
H      -2.35728519      0.20250699      0.65427827
H      -0.20264854     -0.43436562      2.54721982
H       1.61875651      0.04604034     -1.18052560
H       2.95659643     -0.20531849     -0.11439283
