9
b3lypvtz=-294755.90517527
F       2.98679823     -0.36604943      0.00000297
C       1.78447942      0.20969936      0.00000086
N       0.75988134     -0.51039773     -0.00000441
C      -0.49508201      0.02607845     -0.00000617
F      -0.62395463      1.37372481     -0.00000015
C      -1.58363793     -0.74243872     -0.00000343
F      -2.81008254     -0.21637524      0.00000757
H       1.85279567      1.29258832      0.00000263
H      -1.53690454     -1.81931583      0.00000413
