11
b3lypvtz=-264637.58781995
C       0.23783686      0.32428363      0.22893343
C       1.43775322     -0.23793716      0.06907330
O       2.59231426      0.40741586      0.26618082
F       1.62706541     -1.49761683     -0.30247035
C      -1.04218536     -0.37803714      0.01500113
O      -1.14907069     -1.54196117     -0.33143725
N      -2.14361952      0.40580581      0.24372650
H       0.24555514      1.36003635      0.53496336
H       3.32485014     -0.19675030      0.09164156
H      -2.08136825      1.36504882      0.52952015
H      -3.04913119     -0.01028789      0.11614211
