15
b3lypvtz=-214513.62848403
C      -3.21233817     -0.22827315     -0.00276654
C      -1.73675539     -0.43104321      0.10478475
C      -0.81837707      0.50963435     -0.11690029
C       0.62987875      0.30762743     -0.04387797
O       1.41790162      1.43337926      0.09160543
N       1.17006503     -0.84197938     -0.11029310
N       2.53788698     -0.92106424      0.07938644
H      -3.64215822     -0.88733846     -0.76303077
H      -3.46500852      0.80005305     -0.26374974
H      -3.71224017     -0.47675707      0.93782267
H      -1.39013917     -1.42375417      0.37177157
H      -1.14193111      1.51483676     -0.37923124
H       0.86086389      2.20748451      0.21262442
H       2.88736201     -1.73378882     -0.40488493
H       3.04120755     -0.08179885     -0.18933170
