10
b3lypvtz=-246366.78149143708
C      -1.46136928     -0.57681151     -0.02500890
N      -2.05684567      0.56348025      0.03277510
N      -2.68851641      1.51112166      0.08117657
O      -0.08898856     -0.78236567     -0.03668657
C       0.78320659      0.26829182      0.01028584
O       0.45778765      1.42755197      0.06426677
N       2.05358283     -0.20573827     -0.01369590
H      -2.04859240     -1.47342021     -0.06935962
H       2.80507556      0.45680795      0.01565084
H       2.24465966     -1.18891800     -0.05940411
