16
b3lypvtz=-181126.82331517
C      -3.53280419      0.16766886     -0.04741206
C      -2.33137921     -0.40995216      0.02737950
C      -1.06869434      0.30204272     -0.01056666
C       0.13009739     -0.28779267      0.06348677
C       1.41471916      0.42596966      0.00984442
C       2.59499544     -0.12750258     -0.71601799
N       2.54512574     -0.18709806      0.74461374
H      -4.44376883     -0.41345416     -0.01269141
H      -3.63977073      1.24136020     -0.14558634
H      -2.26976567     -1.49006551      0.12514323
H      -1.12198762      1.38382284     -0.10539180
H       0.19625505     -1.36669176      0.16919333
H       1.34171676      1.50860132      0.02800662
H       2.51059115     -1.08507277     -1.21498233
H       3.26231137      0.57836308     -1.19708942
H       3.12714851      0.53543400      1.15424640
