12
b3lypvtz=-231237.92961926
C      -0.71114534     -1.72839386      0.00000053
C      -0.83965948     -0.40858980     -0.00000096
F      -2.09131253      0.12458427     -0.00000733
C       0.20314390      0.61838591      0.00000379
C      -0.08915913      1.92772522      0.00000328
C       1.64843403      0.26642223      0.00000546
O       2.12479025     -0.84177827     -0.00001174
H      -1.59129330     -2.35431163     -0.00000239
H       0.26982499     -2.17173781      0.00000499
H       0.70527135      2.66268060      0.00000862
H      -1.10597134      2.28943905     -0.00000240
H       2.30269559      1.16100807     -0.00000387
