22
b3lypvtz=-183434.80774723
C      -2.06882042     -0.91329688     -0.60863800
C      -1.32116638     -0.76960013      0.72247918
C       0.12032853     -0.21034810      0.68347275
C       0.22752985      1.32909689      0.64916858
C      -0.30251966      2.05771452     -0.58879167
C       0.97343096     -0.90137214     -0.38903537
N       2.39278132     -0.55882833     -0.24355277
H      -3.07015758     -1.31138866     -0.43364503
H      -1.56206250     -1.60494235     -1.28336188
H      -2.18114130      0.03466518     -1.13227825
H      -1.91164668     -0.14643526      1.40043228
H      -1.28302557     -1.75888383      1.18906506
H       0.56337238     -0.49655375      1.64639444
H       1.28295348      1.57894803      0.76646207
H      -0.28420961      1.71965967      1.53413553
H       0.14457940      1.67821226     -1.50899034
H      -1.38568174      1.98129395     -0.68499472
H      -0.05889555      3.12013902     -0.52854822
H       0.66025924     -0.58004890     -1.38433621
H       0.78280676     -1.98376214     -0.33884834
H       2.93550277     -0.96019427     -0.99852373
H       2.76156628     -0.94797876      0.61718463
