15
b3lypvtz=-240222.65374655
C      -1.76492445      1.32372646     -0.19631242
C      -1.32689485      0.05347003      0.44661387
O      -2.38482905     -0.64587202      0.97817375
C      -0.06949629     -0.38134035      0.53983288
O       0.99304909      0.37340877      0.07386479
C       1.99411297     -0.36816012     -0.59201853
O       2.71063493     -1.21894469      0.26551951
H      -2.23727498      1.97814232      0.54002158
H      -2.50782287      1.11625393     -0.96969877
H      -0.91876098      1.84169680     -0.63887896
H      -2.06203760     -1.45406451      1.39223792
H       0.19179505     -1.31101577      1.03403736
H       1.55543482     -1.01652357     -1.35334242
H       2.63851277      0.38327544     -1.05274816
H       3.18860145     -0.67415272      0.90069760
