13
b3lypvtz=-237038.92179905
C      -2.99923844     -0.28748631     -0.00000877
O      -1.73966620      0.38224480      0.00009294
C      -0.66015214     -0.40863185      0.00001709
C       0.59674027      0.08619308      0.00001821
O       0.89635336      1.39725038      0.00008249
N       1.61571428     -0.85708248     -0.00005517
N       2.75532956     -0.32143573     -0.00004622
H      -3.10995229     -0.90716106      0.89302894
H      -3.76006130      0.48775717      0.00017456
H      -3.11000245     -0.90678936     -0.89329792
H      -0.78965750     -1.48279173     -0.00003844
H       1.87480456      1.41817109      0.00006362
H       3.45049631     -1.07146701     -0.00010135
