14
b3lypvtz=-231998.84647779
C       3.25909598     -0.24401268      0.00000101
C       1.85876973      0.27734375      0.00000098
C       0.76393023     -0.48573524     -0.00000215
C      -0.59477836      0.02498451     -0.00000276
O      -0.72823478      1.38239314     -0.00000010
C      -1.65588586     -0.78900396     -0.00000711
F      -2.90823539     -0.25216026     -0.00000491
H       3.81004505      0.11113140      0.87574484
H       3.28681158     -1.33412357     -0.00000243
H       3.81004701      0.11113699     -0.87573930
H       1.73676520      1.35462865      0.00000323
H       0.85397772     -1.56671485     -0.00000513
H      -1.66890463      1.59716011     -0.00000081
H      -1.63695448     -1.86538300     -0.00000436
