11
b3lypvtz=-238716.55174222
O       2.59536856     -0.68139206     -0.34914003
C       1.47254956     -0.48091497     -0.72584375
C       0.27147017     -0.58153047      0.18242039
C      -0.37379602      0.76054763      0.59253457
C      -1.57393348      0.23570595     -0.18699060
O      -2.67281572      0.58478724     -0.45361525
O      -0.94529314     -0.93597436     -0.55637435
H       1.24171222     -0.18282462     -1.76887794
H       0.45788252     -1.28135375      0.99381844
H      -0.54158860      0.90377359      1.65678333
H       0.06844393      1.65917582      0.16518519
