15
b3lypvtz=-216918.9945363
C      -1.08894834      1.18852464     -0.79666470
C      -1.12784366      0.02804765     -0.14300390
C      -2.36438883     -0.67606511      0.31049995
O      -0.01296396     -0.71065217      0.20083884
C       1.24115635     -0.14467928      0.11562165
C       2.20708449     -0.72025910     -0.58640020
O       1.43447700      0.95424318      0.88609911
H      -2.01139057      1.69614413     -1.03156572
H      -0.16725167      1.63035659     -1.14630201
H      -3.25419378     -0.11859818      0.02828328
H      -2.35426558     -0.81067380      1.39383783
H      -2.41318912     -1.67070885     -0.13709994
H       2.00582730     -1.62511956     -1.13458591
H       3.20072429     -0.30245156     -0.58185695
H       0.58267007      1.37173142      1.06565066
