16
b3lypvtz=-181060.67366352
C       1.06164465      0.08159331      0.02706135
C       0.64238256     -1.17072182      0.00060586
C       1.35515341     -2.53619833     -0.31232585
C       0.43580565     -3.03778987      0.85510631
N      -0.68639299     -3.95801638      1.37489048
C      -1.44119198     -2.63942981      1.61398062
C      -0.55536430     -1.99554256      0.48934919
H       0.43031110      0.87734160      0.40001391
H       2.04909902      0.35354324     -0.32427589
H       1.07177741     -2.91118876     -1.29637567
H       2.43539792     -2.58894157     -0.18572094
H       0.95683939     -2.75342077      1.77189534
H      -1.13672468     -4.40874030      0.57916870
H      -1.22212107     -2.28607996      2.61961223
H      -2.51708909     -2.69238088      1.45360113
H      -1.03122701     -2.34382713     -0.43678678
