18
b3lypvtz=-205211.67385737
C       3.36856896      0.22906633     -0.27193427
N       2.18071042     -0.25082316      0.41373219
C       0.94380498     -0.11983151     -0.18846697
C      -0.24279990     -0.00014690      0.42095291
C      -1.54507919      0.01339609     -0.31691123
C      -2.44098802      1.18538110      0.06110165
O      -2.31928239     -1.17255543     -0.04562557
H       3.42282268      1.32261729     -0.34954854
H       3.39526997     -0.18186190     -1.28205791
H       4.25714666     -0.12355773      0.25083338
H       2.17859036     -0.07653032      1.40745357
H       0.98511193     -0.16543297     -1.27346005
H      -0.29775702      0.05573022      1.50527034
H      -1.33403110      0.06380892     -1.39392181
H      -3.39283223      1.11702038     -0.46668909
H      -1.96359321      2.13167490     -0.19426068
H      -2.64466521      1.17407561      1.13315012
H      -1.72089269     -1.92405593     -0.10323704
