15
b3lypvtz=-214544.47202422
C       3.46331753     -0.41131190      0.00008621
C       2.25457258      0.51346263     -0.00017078
N       1.01293581     -0.26129262     -0.00018630
C      -0.08151582      0.36256369     -0.00002071
N      -1.29517395     -0.30751824     -0.00006105
C      -2.52791146      0.29368595      0.00008473
O      -3.57577584     -0.30525581      0.00004088
H       3.45511153     -1.05293634      0.88168018
H       3.45523989     -1.05326473     -0.88126881
H       4.39051362      0.16411402      0.00005104
H       2.29005084      1.16526109      0.87999102
H       2.29017598      1.16495791     -0.88054962
H      -0.18707672      1.45271430      0.00015709
H      -1.26658967     -1.31904830     -0.00021373
H      -2.46134534      1.39495838      0.00022084
