14
b3lypvtz=-226938.23323579886
C       2.28768384      0.24604915     -0.19858142
O       0.99552184     -0.25969852     -0.46886368
C       0.02433437      0.19868914      0.45548143
C      -1.33300335     -0.16218951     -0.06403319
C      -2.07554398     -1.19598312      0.33217400
N      -1.95766987      0.64293862     -1.09007096
O      -1.33150956      1.62443875     -1.41851096
H       2.64336104     -0.06322336      0.79261795
H       2.95542041     -0.16021577     -0.95572114
H       2.30785717      1.34086412     -0.25277769
H       0.18035019     -0.25667179      1.44153983
H       0.08851453      1.28782669      0.56339398
H      -3.04203688     -1.36169002     -0.12537241
H      -1.74327975     -1.88113440      1.09964064
