13
b3lypvtz=-218759.89682836
C       2.96127273     -0.63506083      0.00002611
C       1.87422851      0.14257275      0.00004232
C       0.52495003     -0.37168644      0.00005606
C      -0.58681867      0.37383380      0.00001178
F      -0.48510363      1.72602290     -0.00010969
C      -1.98779935     -0.06832263     -0.00015861
N      -2.45145467     -1.25081413      0.00008730
H       2.88754858     -1.71582182      0.00001845
H       3.95596715     -0.21218006      0.00002140
H       1.98584861      1.21985605      0.00004562
H       0.39503365     -1.44724680      0.00005889
H      -2.69911039      0.75863834     -0.00069019
H      -1.70847555     -1.95234413      0.00057858
