20
b3lypvtz=-182677.82881187
C      -3.29115724      0.21286900     -0.11122036
C      -1.93670168     -0.20268134      0.36841038
N      -0.96919069     -0.40488787     -0.41646464
C       0.30795846     -0.81939253      0.13623285
C       1.46468095      0.06123771     -0.35994500
C       1.31481049      1.51042361      0.10684517
C       2.80575358     -0.53042989      0.08070660
H      -3.58487545      1.16220482      0.34503154
H      -3.29643364      0.31591498     -1.19434456
H      -4.04360475     -0.52334992      0.18495879
H      -1.82451830     -0.32891652      1.45657539
H       0.48871398     -1.84504373     -0.20018829
H       0.29686234     -0.83179138      1.23841761
H       1.42220978      0.04914209     -1.45310621
H       0.37145011      1.94027368     -0.23040067
H       1.34358326      1.57345107      1.19873574
H       2.12450867      2.13107518     -0.28142632
H       2.88556081     -0.55620694      1.17089512
H       3.63898455      0.06570594     -0.29529047
H       2.93306376     -1.55083398     -0.28676967
