14
b3lypvtz=-231994.90559906
F       1.77404249      0.10545911      1.05669641
C       1.71836436     -0.07847577     -0.32004715
C       0.28653116     -0.01112216     -0.82759126
C      -0.49326186      1.18924794     -0.36598157
C      -1.54914756      0.80167265      0.33125907
C      -1.59238074     -0.69391328      0.40626261
O      -0.46505171     -1.13378407     -0.35597954
H       2.32415398      0.70050307     -0.79143537
H       2.14309869     -1.05818319     -0.54454214
H       0.34706598     -0.05934663     -1.92570378
H      -0.19609835      2.20516982     -0.58025260
H      -2.28422997      1.44106747      0.79783843
H      -2.50867591     -1.11204815     -0.02677412
H      -1.51277455     -1.06090780      1.43636302
