19
b3lypvtz=-195162.82091501
C       3.39613480      0.25876819      0.00000184
C       2.12843185     -0.59477153     -0.00000770
C       0.84681008      0.23984110      0.00000594
C      -0.41889864     -0.60977326     -0.00000369
C      -1.71457592      0.18544040      0.00000449
C      -2.99845620     -0.62022244     -0.00000245
O      -1.72742591      1.39544975      0.00000957
H       3.43678381      0.90328309      0.88073585
H       4.29443858     -0.36069738     -0.00000819
H       3.43678076      0.90330726     -0.88071462
H       2.13394376     -1.25378633      0.87434678
H       2.13394068     -1.25376211     -0.87438047
H       0.83455566      0.90049671     -0.87017490
H       0.83455880      0.90047298      0.87020492
H      -0.44010654     -1.27884024      0.86854962
H      -0.44010739     -1.27881764     -0.86857454
H      -3.85516431      0.04902491      0.00000082
H      -3.03994975     -1.26996238     -0.87737552
H      -3.03995312     -1.26997608      0.87736024
