13
b3lypvtz=-216166.11950034
C      -0.84734005     -1.19770727     -0.04680648
C      -1.49570689      0.15103501      0.04162269
C      -0.76724796      1.26856443      0.08625585
C       0.68138596      1.22932531      0.05165349
C       1.26638940      0.02469102     -0.02666175
O       0.61031268     -1.15224910     -0.07593678
O       2.59740975     -0.16184829     -0.06608190
H      -1.11125073     -1.83164115      0.80642839
H      -1.14967347     -1.73469733     -0.95225534
H      -2.57697603      0.16519432      0.06677645
H      -1.25625290      2.23200796      0.14980594
H       1.28718043      2.11903418      0.08633414
H       2.76176982     -1.11170909     -0.12113470
