15
b3lypvtz=-193607.0914517
C       2.98669245      1.03548549     -0.09857864
C       2.54687913     -0.42530405      0.08315781
C       1.09890997     -0.60358403      0.02623480
C      -0.09329661     -0.74541922     -0.03339188
C      -1.54306618     -0.87140862     -0.09678614
C      -2.26189561      0.41791212      0.28634118
O      -3.26216980      0.80640548     -0.25179323
H       2.65389743      1.42412857     -1.06089433
H       2.56679240      1.66792025      0.68345952
H       4.07372992      1.11187279     -0.05421018
H       3.00963685     -1.04622789     -0.68923086
H       2.91773768     -0.80485492      1.03952785
H      -1.88426585     -1.63937322      0.60993132
H      -1.88941876     -1.17418408     -1.08657467
H      -1.79735403      0.97803732      1.12206447
