16
b3lypvtz=-202056.96884778
C       2.90486004     -0.65957102     -0.05231328
C       1.81469284      0.05201515      0.23328247
N       0.52632717     -0.25190004     -0.17263620
C      -0.55465371      0.62447320     -0.11659211
N      -0.52201109      1.88452875      0.09216185
N      -1.77531510      0.00226517     -0.35017860
C      -2.12764868     -1.25979922      0.29324648
H       2.87319478     -1.54055001     -0.68071218
H       3.86135832     -0.37058570      0.35378324
H       1.87622108      0.93145391      0.86082750
H       0.38895844     -1.11391294     -0.67416387
H       0.42133000      2.25620873      0.06307720
H      -2.50420665      0.69880212     -0.30554351
H      -1.51794946     -2.08247839     -0.08056034
H      -2.03219765     -1.23277674      1.38420589
H      -3.16107734     -1.49199697      0.04215047
