16
b3lypvtz=-204442.23821889
C      -2.06587274     -1.13630616      0.04501426
C      -0.92345093     -0.23770650     -0.37963376
N      -1.16571532      1.21840310     -0.22684468
C       0.20143739      1.43253059      0.31336497
C       0.31525959     -0.07897569      0.57131839
C       1.55824654     -0.80209179      0.15728183
O       2.52087272     -0.28968231     -0.35761756
H      -1.76869842     -2.18756458      0.02710150
H      -2.39853718     -0.87932964      1.05124723
H      -2.91536895     -1.01839851     -0.63124670
H      -0.58906345     -0.50828823     -1.38934172
H      -1.36626834      1.70875845     -1.08992317
H       0.23992135      2.08722586      1.18413490
H       0.94025260      1.76482436     -0.41960099
H       0.04833017     -0.37204815      1.58910179
H       1.53830799     -1.89873780      0.33458273
