13
b3lypvtz=-190457.77121386
C      -1.64011203     -1.45920756     -0.26790495
C      -0.81902623     -0.47987381      0.11578717
C      -1.24692315      0.88649446      0.03534621
N      -1.56110874      1.99492621     -0.00278719
C       0.58675837     -0.70761572      0.63162670
C       1.64614614     -0.30264826     -0.37558954
N       2.57119720      0.54341868     -0.22686782
H      -1.33257927     -2.49432292     -0.20429519
H      -2.63057964     -1.25296858     -0.64734259
H       0.70140066     -1.77288164      0.84687265
H       0.74010749     -0.15695347      1.56205768
H       1.58734943     -0.82314483     -1.33475271
H       2.53293076      0.98174345      0.69630860
