17
b3lypvtz=-217675.33038113
O       2.25110350     -0.21948211     -1.22776612
C       1.09342302     -0.92312690     -0.80565536
C       0.52608593     -0.38233021      0.50214591
C      -0.86013211     -0.98282511      0.87723567
C      -1.54282191      0.28921285      0.30721851
C      -0.16910390      0.99583356      0.37145495
O       0.25754353      1.76473531     -0.74881940
H       1.97739195      0.69561566     -1.36439373
H       0.32359657     -0.91504411     -1.58769464
H       1.39722595     -1.96195941     -0.66195461
H       1.30219409     -0.43394190      1.26586154
H      -0.99341232     -1.08698091      1.95285346
H      -1.11907699     -1.92958169      0.40392318
H      -2.36244662      0.72781096      0.87550468
H      -1.85891660      0.15505335     -0.72686704
H      -0.06056738      1.57752088      1.29129394
H      -0.16208670      2.62938977     -0.72444094
