15
b3lypvtz=-214514.58345305
C       2.60961008      0.59916947      0.50803618
N       1.36866909      0.63375696      0.23013166
C       0.76086643     -0.44122433     -0.40542145
C      -0.54356565     -0.41401753     -0.72506452
C      -1.49094215      0.71153369     -0.42665320
N      -2.54471058      0.39356793      0.55210798
O       1.58154481     -1.51187368     -0.67096355
H       3.26198135     -0.24042756      0.27216175
H       3.04507354      1.45820259      1.01038478
H      -0.96497704     -1.28894458     -1.21425497
H      -1.99042820      1.02703568     -1.34674765
H      -0.92838336      1.56616698     -0.05803218
H      -2.11881383      0.07700329      1.41642585
H      -3.11897651     -0.37321315      0.21896906
H       1.07305202     -2.19673577     -1.11658391
