10
b3lypvtz=-223075.60917378
O       1.56507904      0.99823859      0.36482023
C       2.21615082      0.08676424     -0.05700430
N       2.97411632      0.16684561     -1.23974034
C       3.13493404      1.20565721     -2.10927984
C       3.97154860      0.71091013     -3.06193004
N       4.28628987     -0.59026063     -2.74525090
N       3.69323877     -0.92031202     -1.65769861
H       2.31131923     -0.90566651      0.40098390
H       2.65278882      2.15382049     -1.96177570
H       4.36743448      1.18550289     -3.94182440
