14
b3lypvtz=-226972.2534485726
C      -0.29399696     -0.78219058      0.55996905
C      -1.42813870     -0.28156377     -0.30607770
O      -1.60853192      1.15309005     -0.13502400
C      -0.57824298      1.98747348     -0.01973179
N       0.62615496      1.39116686      0.06760911
C       0.96570794     -0.01340812      0.17803543
O       1.49900241     -0.43443699     -1.07685785
H      -0.52115151     -0.61396504      1.61518995
H      -0.13696435     -1.85251938      0.41575343
H      -1.21935292     -0.46870653     -1.36067948
H      -2.38520534     -0.72625482     -0.04531527
H       1.39827634      2.03563541      0.10721008
H       1.73247470     -0.11763988      0.95233833
H       1.94996832     -1.27668068     -0.95241929
