15
b3lypvtz=-214524.73073305
N      -2.07992026     -1.54106548      0.60923458
C      -1.25331564     -0.44373360      0.31730654
N      -1.93878492      0.77041035      0.31830943
C       0.08524614     -0.54140717      0.15486569
C       0.98867977      0.58547459      0.10252033
C       2.28589997      0.50851641     -0.20827403
O       3.09467323      1.62304175     -0.20920057
H      -1.56742969     -2.40513813      0.70364442
H      -2.85108996     -1.65301660     -0.03824990
H      -1.69640259      1.42231288     -0.40841115
H      -2.92512596      0.71165837      0.50616357
H       0.50415423     -1.53703027      0.06796346
H       0.59659155      1.56508985      0.35653904
H       2.76617822     -0.42796241     -0.47221718
H       3.99084589      1.36284946     -0.43239423
