14
b3lypvtz=-203705.38557058
C      -2.61874424     -0.14851421      0.63624992
C      -1.64065710     -0.46481910     -0.50592054
C      -0.25098441      0.04319610     -0.26100527
O      -0.09203512      1.38272841     -0.15743274
C       0.81965479     -0.76135970     -0.13496544
C       2.13445352     -0.28950862      0.09952987
N       3.21853439      0.05869422      0.29046459
H      -2.70577893      0.92388784      0.82056087
H      -2.29553886     -0.61851662      1.56486905
H      -3.61431528     -0.51868921      0.39285331
H      -2.00965885     -0.02300559     -1.43853203
H      -1.59646239     -1.54080580     -0.66744062
H      -0.93196253      1.83290313     -0.29180316
H       0.68508600     -1.82949486     -0.21434682
