19
b3lypvtz=-192722.87600967
C      -2.00991687     -0.34340560     -0.73876935
C      -0.65750127     -0.62306934     -0.03366107
C      -1.26142776      0.14914582      1.17123516
N      -2.29406844      0.70740040      0.26736217
C       0.55047048      0.02640350     -0.69694873
C       1.84705844     -0.15201893      0.08719483
N       2.96770221      0.47940326     -0.61882704
H      -1.96374588      0.01979668     -1.76839332
H      -2.68722670     -1.20401124     -0.69969795
H      -0.45634041     -1.67757590      0.15871568
H      -0.63065960      0.90166971      1.65085981
H      -1.65029649     -0.52371167      1.94384434
H      -3.23713813      0.72079867      0.63391488
H       0.34998884      1.09449327     -0.83406964
H       0.69194642     -0.39464708     -1.69617959
H       1.70882127      0.22312951      1.11174698
H       2.06947161     -1.21937674      0.17330194
H       3.83367174      0.33258540     -0.11376193
H       2.82919057      1.48299028     -0.66491092
