14
b3lypvtz=-180351.80420407
C       3.97152843      0.20337557     -0.00014008
C       2.52933856      0.03705568      0.00039071
C       1.32931644     -0.10116762      0.00039311
C      -0.02498791     -0.25952918      0.00026770
C      -1.22591365     -0.40417036      0.00010641
C      -2.68530776     -0.52336828     -0.00020513
N      -3.42767826      0.74438461     -0.00005214
H       4.47068628     -0.70852765     -0.33528943
H       4.27281041      1.01377824     -0.66761718
H       4.34071662      0.43852395      1.00054684
H      -3.00014263     -1.10186986      0.87204455
H      -2.99981545     -1.10147850     -0.87284645
H      -3.16361890      1.29338010     -0.81047877
H      -3.16400719      1.29294729      0.81079186
