17
b3lypvtz=-194358.98902243
C      -0.75297139      1.64166598     -0.16560213
C      -0.72090379      0.20935664      0.37004281
C      -1.37436068     -0.77902737     -0.59610314
C       0.71283991     -0.20873155      0.75612820
C       1.62480580     -0.32435275     -0.38696069
C       2.39911233     -0.43390403     -1.29753163
O       0.61815310     -1.44491993      1.47224728
H      -0.20419548      1.72452056     -1.10552293
H      -1.78145882      1.95336615     -0.35251404
H      -0.31495166      2.34774442      0.54314626
H      -1.27101511      0.18067488      1.31519317
H      -2.41972200     -0.51277936     -0.76071977
H      -0.87047763     -0.77126901     -1.56471661
H      -1.33783267     -1.79315624     -0.20103146
H       1.11469959      0.56603348      1.42217652
H       3.07829337     -0.53217997     -2.10744481
H       1.49998513     -1.82304191      1.54710817
