14
b3lypvtz=-203682.815291
C      -0.71861180      1.13970776      0.12861997
C       0.77971395      0.81553857     -0.08026967
C       0.89245879     -0.69396227      0.11051909
N       1.86857097     -1.40147629      0.49642386
C      -0.45337580     -1.27339522     -0.16267712
C      -1.42707797     -0.17040397     -0.15592401
O      -1.02643331     -0.76617468     -1.38924929
H      -0.91341762      1.43367847      1.16271296
H      -1.07360164      1.94396423     -0.51680542
H       1.08987724      1.06517668     -1.09605187
H       1.43297328      1.35227939      0.60648932
H       2.68891702     -0.82487119      0.69033300
H      -0.67553285     -2.30201890      0.08547505
H      -2.46446026     -0.31804259      0.12040414
