14
b3lypvtz=-180336.38633394
C       3.70137997     -0.05551308     -0.70431586
C       2.64921076      0.12728247     -0.14993606
C       1.43267581      0.36234205      0.53808471
C       0.23333995      0.00090527      0.07181036
N      -0.94647665      0.26020139      0.80161574
C      -2.14187223      0.56138112     -0.00701696
C      -2.01381789     -0.74719555      0.66391584
H       4.62518797     -0.22055545     -1.19948351
H       1.48410098      0.86443595      1.49770626
H       0.14466889     -0.50639090     -0.89056284
H      -2.78075836      1.33146246      0.40454854
H      -2.02300574      0.58889571     -1.08458075
H      -2.55732976     -0.95424948      1.57623736
H      -1.80730369     -1.61300197      0.04431603
