14
b3lypvtz=-224590.67130431
N       2.61911754      0.10529314     -0.34288937
N       1.48880304     -0.74343876     -0.18527918
C       0.42838480     -0.12040927      0.17314076
N       0.36358820      1.23039617      0.45691563
C      -0.80523552     -0.95318905      0.39694990
C      -2.10794907     -0.43823657     -0.16734430
O      -2.35158577      0.70885444     -0.45113412
H       2.85937869      0.53513053      0.55033593
H       3.39067153     -0.49760607     -0.59470401
H      -0.55774955      1.62561100      0.32956648
H       1.08762763      1.75775940     -0.01518067
H      -0.99006152     -1.07208336      1.47534033
H      -0.61588048     -1.95751608      0.01766459
H      -2.89081951     -1.21514451     -0.28036797
