14
b3lypvtz=-250272.08655786
O       2.22138009      0.88293598      0.65280086
C       0.81667233      0.66613113      0.73439320
C       0.38953875      0.00129545     -0.57340522
C      -1.09788565     -0.18187775     -0.65339417
O      -1.83991306      0.82110916     -1.20332649
N      -1.76790479     -1.17283271     -0.22143294
O      -0.91840187     -2.12955702      0.39045691
H       2.53366050      1.21047921      1.50091814
H       0.56019669      0.01020772      1.57079877
H       0.28107078      1.61394455      0.86672568
H       0.87793432     -0.96797513     -0.65147313
H       0.73333072      0.61745449     -1.40909840
H      -1.24859202      1.45514587     -1.61927523
H      -1.54108680     -2.82656094      0.61541203
