13
b3lypvtz=-211368.27194743
N      -2.89235508     -0.48977965      0.25830430
C      -1.69462868     -0.75046781     -0.05458773
C      -0.54211943      0.21568944     -0.15174624
N      -0.64556367      1.48724188     -0.20646944
N       0.68030485     -0.44780222     -0.22755025
C       1.71836070      0.17477002      0.19862520
N       2.95980495     -0.32236632      0.06026257
H      -3.01721784      0.50882525      0.45269109
H      -1.42640586     -1.78456158     -0.26745026
H      -1.62045006      1.78252379     -0.15952970
H       1.65601919      1.14345935      0.69720318
H       3.09004248     -1.21021927     -0.39481590
H       3.74961045      0.13240111      0.47756319
