13
b3lypvtz=-213771.74334779
O      -2.25477609      1.19825173      0.60138586
C      -1.77084456     -0.03422201      0.10456612
C      -0.27369822     -0.06785880     -0.00052814
N       0.42057244      1.02761079      0.27712049
N       1.70804559      0.68558812      0.08195779
H       2.42801291      1.36765643      0.23955988
C       1.84820617     -0.60071291     -0.31219760
C       0.58007417     -1.12891812     -0.37957068
H      -1.49560260      1.79054105      0.67609820
H      -2.20517739     -0.23042827     -0.88398330
H      -2.10798142     -0.84221446      0.76342470
H       2.81431185     -1.03334509     -0.50861757
H       0.30895715     -2.13184846     -0.65921574
