14
b3lypvtz=-224565.92338488
N      -2.90989963     -0.85510542      0.04366587
C      -2.47735986      0.47905904     -0.01405897
C      -1.19412114      0.84818606     -0.07219414
N      -0.14141644     -0.07994006     -0.07424128
C       1.17154931      0.26741449      0.10249806
N       2.11703714     -0.53310183     -0.20208483
O       3.36946637      0.04762248      0.13787693
H      -3.87408586     -0.95511522      0.31938830
H      -2.32375422     -1.44580195      0.61967479
H      -3.24857845      1.23141614     -0.08798637
H      -0.92152543      1.89025366     -0.14217281
H      -0.30056719     -0.96551767     -0.53344019
H       1.35731520      1.24722496      0.53551738
H       3.98911922     -0.62542068     -0.15672174
