13
b3lypvtz=-190410.8939783
C       3.02068716     -0.47021175     -0.51145520
C       1.90415619     -0.18976491     -0.17071643
C       0.57616593      0.16752826      0.24020448
C      -0.60392191     -0.19678942     -0.62216898
N      -0.18318289      1.19418236     -0.49793803
C      -1.91236766     -0.55552789      0.00268344
N      -2.70076004      0.23811187      0.59146642
H       4.00768339     -0.72268372     -0.80984275
H       0.41263353      0.20165080      1.31106953
H      -0.35639749     -0.73359798     -1.53153286
H       0.33454292      1.49105045     -1.31814135
H      -2.18360594     -1.61134043     -0.05957749
H      -2.31563318      1.18739236      0.55621212
