11
b3lypvtz=-212999.32055713
N      -3.26482593      0.50710056      0.94231563
C      -2.35271645     -0.03482407      0.50054672
C      -1.20552010     -0.72786699     -0.09010136
N       0.04623050     -0.19107096      0.42841303
C       0.91575263      0.19053472     -0.40683146
C       2.21712974      0.71880247      0.09765536
O       3.09569841      1.07836594     -0.64376551
H      -1.28405805     -0.67562063     -1.18301550
H      -1.26419548     -1.78028401      0.20181821
H       0.79210278      0.16425361     -1.49545952
H       2.30440194      0.75050935      1.19822440
