13
b3lypvtz=-216135.96820977
C      -1.35068344     -0.71990487     -0.10476280
C      -0.84620282      0.58864819      0.59236182
C       0.51193364      0.37121321     -0.07146462
C       0.03032008     -0.87113089     -0.74769133
O       0.30875792      0.29875350     -1.49521313
C       1.87176967      0.66856471      0.40398113
O       2.11453054      1.13083760      1.49231431
H      -1.57528266     -1.51172630      0.60755636
H      -2.17031380     -0.61946585     -0.81455200
H      -1.33987576      1.51877752      0.31868157
H      -0.79558782      0.50015599      1.67485497
H       0.57175501     -1.76922314     -1.01307780
H       2.66887944      0.41450030     -0.32229670
