14
b3lypvtz=-203671.40533643
C      -1.31523368      1.79515834      0.15664295
N      -1.49856897      0.40621089     -0.19964624
C      -0.65743521     -0.48464152      0.08512974
O      -0.87373095     -1.76670304     -0.30778098
C       0.65439886     -0.37879888      0.85028171
C       1.77930759     -0.03116859     -0.01099810
C       2.70182453      0.26249145     -0.71787645
H      -0.43214707      2.00729154      0.76807817
H      -1.23817426      2.39118401     -0.75528801
H      -2.19889842      2.14721469      0.69223439
H      -1.70345317     -1.75779407     -0.80746833
H       0.55474815      0.36548606      1.64157930
H       0.84123373     -1.34091027      1.32942923
H       3.51946387      0.51590538     -1.34509838
