14
b3lypvtz=-203686.2745562
C      -0.53504955      1.37893785      0.39833850
C      -0.35721293      0.01035854     -0.20667874
C       1.04680141     -0.32769818     -0.70504595
C       2.02884053     -0.40264742      0.37252745
N       2.78800270     -0.46003872      1.23482479
C      -1.26062783     -1.09177849      0.13466063
O      -1.37736831     -0.40337103     -1.12036701
H      -0.27194583      2.15241073     -0.32629784
H       0.10294450      1.50294283      1.27452747
H      -1.57141255      1.52870515      0.69589130
H       1.02141000     -1.28199010     -1.23249202
H       1.37143776      0.43004139     -1.42313585
H      -0.91474258     -2.11844459      0.06935791
H      -2.07127733     -0.91742798      0.83398937
