13
b3lypvtz=-232238.20129442
C      -1.58951204      0.14827599      0.16401455
N      -2.71064885     -0.09703968     -0.39770971
N      -1.50776170      0.95613023      1.27206468
N      -0.36143697     -0.32308336     -0.29553432
N       0.79798824     -0.08024054      0.36575225
N       1.78688810     -0.57919188     -0.19603949
N       2.94889045     -0.41320994      0.51669834
H      -2.60451322     -0.66339505     -1.23371940
H      -2.39081635      1.09128557      1.73402331
H      -0.69865552      0.85038926      1.85958032
H      -0.31982848     -0.89066463     -1.13128430
H       3.72974304     -0.37345171     -0.12105328
H       2.91966328      0.37419574      1.15879585
