13
b3lypvtz=-234719.48311653
N      -2.30824211     -0.78750092     -0.03179684
C      -1.20084502      0.01149952      0.00271944
O      -1.31684680      1.24317894      0.04118740
N      -0.03193104     -0.72771582     -0.03479065
C       1.11885409     -0.11007166     -0.00794523
N       1.30838531      1.22790294     -0.06778261
N       2.24958285     -0.88322518      0.09465110
H      -3.19894605     -0.35942516      0.14373159
H      -2.19676550     -1.77529713      0.10512698
H       0.44442021      1.76231818      0.00744783
H       2.17585100      1.61764718      0.25651273
H       2.08007604     -1.86443995     -0.05356802
H       3.09548703     -0.52762994     -0.31926071
