16
b3lypvtz=-181136.92875912
N      -1.65486212      0.11201999     -1.06732969
C      -1.29202450      0.03519530      0.32138548
C      -0.13078499     -0.77998557      0.91204956
C       0.92485360     -1.20644527     -0.03750760
C       1.52722955     -0.16916541     -0.62308775
C       1.00851993      1.15290423     -0.10147425
C      -0.10294700      0.75420175      0.86886202
H      -2.30078365     -0.63425854     -1.29955374
H      -0.84225099     -0.01391785     -1.66055544
H      -2.16613711      0.06696886      0.96035715
H      -0.29962051     -1.33456771      1.82597204
H       1.14143963     -2.24570281     -0.24686404
H       2.28747057     -0.23999697     -1.38969266
H       0.63660037      1.79685165     -0.90607504
H       1.79616524      1.71954044      0.40383720
H      -0.22939003      1.33726792      1.77052176
