16
b3lypvtz=-204477.75382439
C       1.52038031      1.34568718      0.08801814
C       1.26426199      0.03975417      0.00003266
C       2.34321904     -1.00362189     -0.09801585
N      -0.02575670     -0.53170290     -0.01226606
C      -1.24930181      0.09306748      0.06818081
C      -2.44398205     -0.84492066      0.03247201
O      -1.39020530      1.29585284      0.16407827
H       2.55030490      1.67266907      0.08880344
H       0.73921711      2.08183815      0.15812673
H       2.24657119     -1.58682640     -1.01871275
H       2.29253967     -1.70427973      0.74085048
H       3.32631288     -0.53965975     -0.09282180
H      -0.04934801     -1.53419046     -0.08651097
H      -3.09103594     -0.54894678     -0.79370340
H      -2.18378672     -1.89775225     -0.07908116
H      -3.01270756     -0.71592506      0.95415845
