15
b3lypvtz=-214524.13242159
N       2.54898888     -0.60032338     -0.17525448
C       2.01130925      0.66265918      0.03026982
C       0.71510584      1.00389108      0.16262217
C      -0.44641657      0.13002703      0.07765311
N      -0.23624178     -1.27187177      0.16231437
C      -1.67995212      0.62458846     -0.11608509
O      -2.78195061     -0.21762466     -0.09816113
H       1.90293039     -1.28107801     -0.54911479
H       3.45124279     -0.61249044     -0.62072335
H       2.75679378      1.44171409      0.13570952
H       0.50956616      2.04941626      0.34691670
H      -1.11648052     -1.76968048      0.14354227
H       0.27364836     -1.52566561      0.99948386
H      -1.86451591      1.67980174     -0.26087577
H      -3.48317793      0.16536251     -0.63022320
