12
b3lypvtz=-202935.74371993
C      -2.32594718     -0.01762938      0.00000127
C      -0.99322851      0.05288418      0.00000939
C      -0.17389538      1.24416547     -0.00000946
C       1.16335866      1.14184764      0.00000038
N       1.82507891     -0.09195663      0.00001580
C       1.07681572     -1.11812133     -0.00000064
O      -0.27178706     -1.15071710      0.00003359
H      -2.83772828     -0.96740624      0.00000512
H      -2.90880070      0.88997707     -0.00002231
H      -0.66965420      2.20428127     -0.00001554
H       1.80585649      2.01123458     -0.00000075
H       1.48337155     -2.12207253      0.00009714
