15
b3lypvtz=-193580.41522703
C      -1.15769989     -0.57482098      0.37379403
C      -0.13374401      0.42131462      0.97802682
C      -0.32278999      1.23642656     -0.34934008
C      -0.44608554     -0.20617055     -0.95414952
C       0.99476470     -0.69996665     -0.70942863
C       1.21648570     -0.25453553      0.66200160
O       1.16023001     -1.65907016      0.35127175
H      -2.16942290     -0.17652068      0.40810908
H      -1.13087205     -1.60789661      0.70482310
H      -0.26448686      0.86736767      1.96038505
H       0.50765422      1.85947778     -0.68589577
H      -1.25554454      1.79887741     -0.38118101
H      -0.89272301     -0.39514483     -1.92669925
H       1.74068829     -0.71937628     -1.49259201
H       2.15354585      0.11003822      1.06087481
