16
b3lypvtz=-181110.64389955
C      -1.34020982     -0.93624070     -0.31752185
C       0.02108611     -1.09666127      0.40700054
N       0.04049446      0.00750320      1.39527789
C      -0.03432187      1.10412063      0.40181019
C       1.33840815      0.94539877     -0.28271073
C       0.70525768     -0.34327782     -0.81333273
C      -0.69896318      0.35004548     -0.84234165
H      -2.24142886     -0.89389859      0.29980175
H      -1.47522000     -1.65925584     -1.12340277
H       0.37696326     -2.05040918      0.78680250
H      -0.80395390     -0.02720175      1.95872805
H      -0.39697579      2.05034427      0.79387969
H       1.49114689      1.66108601     -1.09135045
H       2.20923102      0.89985585      0.37015218
H       1.09895791     -0.94607582     -1.62685021
H      -1.06907207      0.93496675     -1.67974240
