12
b3lypvtz=-252150.02835591
C       1.29428479      0.66394446      0.17819152
C       0.22486703     -0.14026462      0.19897658
N      -1.05981946      0.25962900     -0.00302491
C      -2.03758009     -0.54690480      0.01763290
O      -3.30437059     -0.12854986     -0.17872088
F       0.44390704     -1.48325846      0.43134043
N       2.61136355      0.24124266      0.28985812
H       1.12803157      1.71411294     -0.00613106
H      -1.98660874     -1.61760924      0.18585233
H      -3.27143228      0.82835787     -0.32307216
H       2.72393690     -0.69145576      0.65718227
H       3.23342031      0.90075582      0.72907453
