15
b3lypvtz=-216882.32425061
C      -2.51496762     -0.96521682     -0.16348106
C      -1.38646647     -0.66058529      0.09918700
C      -0.01833373     -0.27974938      0.48366945
O       0.13388011      1.10566758      0.68438155
C      -0.20433260      1.92999491     -0.43028794
O       0.85531127     -0.79578576     -0.49066153
C       2.22056962     -0.78437131     -0.08872162
H      -3.51137605     -1.24062834     -0.40493426
H       0.21605456     -0.71164147      1.46386940
H      -1.27088871      1.86572792     -0.65866551
H       0.04175619      2.94792462     -0.13709480
H       0.36991183      1.65630055     -1.31746290
H       2.58205215      0.23146075      0.08468006
H       2.36429273     -1.37367428      0.82387801
H       2.78598671     -1.23805869     -0.89936687
