18
b3lypvtz=-202830.85633968
C       1.89752362      0.40027339      1.53106240
C       1.97450771      0.20144939      0.01899996
C       0.62879320      0.38310309     -0.68406505
N      -0.31486349     -0.63585387     -0.26571609
C      -1.54245802     -0.52465185     -0.58415954
N      -2.11024413      0.43557517     -1.41513536
N      -2.48332799     -1.42918805     -0.08700752
H       1.57957865      1.41646074      1.77895694
H       1.17922755     -0.29129948      1.97128502
H       2.86705737      0.23224056      2.00323503
H       2.69323070      0.90333307     -0.41428442
H       2.33954462     -0.80460189     -0.20228237
H       0.25684965      1.39957401     -0.46742950
H       0.79104157      0.33554617     -1.77004592
H      -1.52331099      1.22714179     -1.62016075
H      -3.05520173      0.69793777     -1.18127516
H      -2.02720686     -2.19787391      0.38170071
H      -3.15084141     -1.74936609     -0.77437838
