14
b3lypvtz=-224578.85509384074
C      -0.70793858     -0.69667403      0.07595052
N       0.50123569     -0.02493226      0.09854991
C       1.72807824     -0.43378459     -0.07566932
N       2.81756936      0.40043735     -0.01519850
C      -1.88619417      0.04307980      0.30442501
N      -3.12425412     -0.30545031      0.34161528
O      -1.62717079      1.39141538      0.52624597
H      -0.70325842     -1.75509086     -0.11501285
H       0.35811456      0.96460272      0.28892880
H       1.91027343     -1.47690862     -0.27888209
H       2.72979695      1.38209748      0.16966909
H       3.73625364      0.03134324     -0.15533322
H      -3.23220037     -1.30048374      0.17110214
H      -2.50030545      1.78034841      0.66666617
