11
b3lypvtz=-210537.30937526
C      -1.05587298      0.26982764      0.64986035
C      -0.14786022      1.26618650      0.17788514
N       1.04939991      1.08404398     -0.27870717
C       1.66330385     -0.09769552      0.17106164
N       1.25904825     -1.29644043      0.19779157
N       0.01630026     -1.65213100     -0.34132434
N      -0.97620730     -0.98395192      0.12041096
H      -2.03564480      0.53735974      1.01069979
H      -0.55683249      2.27679527      0.11847355
H       2.64109656      0.06993268      0.62071384
H      -1.85673103     -1.47392695     -0.02334438
