17
b3lypvtz=-191960.44432445
C       0.82073452      1.24225919     -0.20360695
N       1.59543830     -0.00000064     -0.05110503
C       0.82073350     -1.24226001     -0.20360546
C      -0.67417382     -1.02745841      0.09391337
C      -1.25112726      0.00000004     -0.90259982
C      -0.67417298      1.02745917      0.09391217
N      -0.87515507      0.00000109      1.16017984
H       1.24300821      1.99136693      0.46983460
H       0.92662747      1.63784333     -1.22081346
H       2.05785406     -0.00000029      0.84394750
H       1.24300657     -1.99136728      0.46983701
H       0.92662615     -1.63784547     -1.22081149
H      -1.20441045     -1.96951111      0.24114485
H      -0.85689181     -0.00000072     -1.91850615
H      -2.33860246      0.00000047     -0.91544444
H      -1.20440883      1.96951249      0.24114253
H      -0.15251511      0.00000121      1.87683093
