14
b3lypvtz=-201255.19977964
C      -1.45767774      1.58158801      0.21590999
C      -0.69543017      0.48741899      0.13740927
C       0.76908019      0.55521358      0.10201769
N       1.49667541     -0.46820786     -0.04881671
C       2.93030546     -0.28887095     -0.08895555
N      -1.26224167     -0.82225404      0.20558387
N      -2.21542104     -1.01290822     -0.56107260
H      -1.01030543      2.56460835      0.26929546
H      -2.53442772      1.50788904      0.24957495
H       1.18792210      1.56747014      0.19134068
H       3.24989873      0.75717950      0.01406911
H       3.38642160     -0.87936781      0.70871899
H       3.31355455     -0.68617246     -1.03146860
H      -2.56280526     -1.96347127     -0.36403555
