19
b3lypvtz=-195136.77113933
C       1.62870379     -1.23394729     -0.22016383
C       0.83627220      0.05150176     -0.48653488
C       1.59882367      1.28840503     -0.00061766
C      -0.55582128     -0.01466342      0.12819736
O      -0.57696514     -0.10718909      1.53865011
C      -1.67660228     -0.69301141     -0.61108751
C      -1.66256476      0.81409428     -0.43375268
H       1.82815878     -1.35948363      0.84707749
H       2.59521432     -1.20698994     -0.72569261
H       1.09055759     -2.11605182     -0.57322278
H       0.69501506      0.13800541     -1.56873508
H       2.59025568      1.33920894     -0.45435366
H       1.72050321      1.26230347      1.08291315
H       1.06434975      2.20548283     -0.25311989
H      -0.32645445     -1.00329721      1.78637692
H      -1.48103482     -1.09702176     -1.59571283
H      -2.39288966     -1.24987361     -0.02294409
H      -2.36212606      1.23443854      0.27437720
H      -1.45853662      1.43101290     -1.29842370
