16
b3lypvtz=-204440.58439884
C       1.77309312      1.41615526      0.21136976
C       1.54911056      0.10883342     -0.50456935
N       1.62943664     -1.12220038      0.29518740
C       0.35170983     -0.76322569     -0.33870846
C      -0.81421084     -0.46789202      0.58202492
C      -1.84360247      0.42090981     -0.07220923
O      -3.00838509      0.14405595     -0.19969568
H       2.84276898      1.60244199      0.32569725
H       1.33544967      1.40997874      1.20800848
H       1.34734073      2.24912771     -0.35237377
H       1.99716920      0.07019386     -1.49347412
H       2.09160789     -1.86692090     -0.21429537
H       0.07067881     -1.33245689     -1.22000243
H      -1.29872233     -1.39247055      0.89883677
H      -0.44518570      0.04066954      1.47674028
H      -1.45311500      1.38985616     -0.45057744
