15
b3lypvtz=-216917.08029354
O      -2.73452246      1.07971394      0.44649722
C      -2.35349405     -0.22922999      0.28365503
C      -1.09527266     -0.63325081      0.42082145
C       0.07730149      0.25208745      0.74939887
C       1.14632562      0.21952337     -0.31141011
C       2.38505967     -0.21335152     -0.10043703
O       3.40043352     -0.27629908     -1.01215686
H      -3.67888539      1.15874293      0.29484432
H      -3.14885491     -0.92370182      0.03731529
H      -0.89922152     -1.68659928      0.26515200
H       0.51658248     -0.06055670      1.70245840
H      -0.27837749      1.27455699      0.89199628
H       0.86134056      0.56040697     -1.30388788
H       2.71915667     -0.57013490      0.86615798
H       3.08242847      0.04799246     -1.86250495
