11
b3lypvtz=-236287.76193474
N       2.58373263     -0.80459508     -0.23389153
N       1.47920537     -0.45033780      0.23754095
C       0.52341343     -0.18234444     -0.73534164
C      -0.71100826      0.20994132     -0.34767109
O      -1.67557449      0.48337977     -1.23206141
C      -1.11654733      0.37465769      1.07026522
O      -2.25046757      0.73189860      1.31877628
H       3.20339682     -0.97348451      0.56839499
H       0.79049767     -0.29423500     -1.78194891
H      -2.45682067      0.73964195     -0.70615219
H      -0.36992759      0.16527750      1.84228933
