15
b3lypvtz=-191187.97130793
C       0.46355431      1.38409762     -0.53073155
C       0.51397158      0.06733526     -0.30141140
C      -0.58005591     -0.90169367     -0.39629638
C      -1.86215234     -0.73701944     -0.05410151
C      -2.51504492      0.47731779      0.52808937
N       1.78076944     -0.57857140     -0.08835197
N       2.56039402      0.01850748      0.66598771
H      -0.44957890      1.86950194     -0.83844178
H       1.36061200      1.98177851     -0.45865274
H      -0.26497208     -1.87942167     -0.74349469
H      -2.51374434     -1.59287914     -0.19730237
H      -3.05767005      1.04184196     -0.23710825
H      -3.25094010      0.18882875      1.28098353
H      -1.79372753      1.15318810      0.98603469
H       3.43237384     -0.53001109      0.68130235
