18
b3lypvtz=-205187.08936023
C       2.77660752     -0.37005797      0.13643923
O       1.66073295      0.44307512      0.44558526
C       0.58143440      0.26559307     -0.43179223
C      -0.64816783      1.12068817     -0.09655063
N      -1.49968411     -0.04748645     -0.40013943
C      -2.68060824     -0.26974503      0.40234195
C      -0.35067361     -0.95933643     -0.23579980
H       3.14601953     -0.17293540     -0.87749243
H       2.53808171     -1.43689538      0.21910325
H       3.55971094     -0.12896699      0.85281998
H       0.90636070      0.37450504     -1.47198968
H      -0.63686357      1.38890235      0.96896491
H      -0.84616972      2.01065209     -0.69586596
H      -2.46531272     -0.30991580      1.48407695
H      -3.15253496     -1.21099284      0.11397306
H      -3.40208439      0.53098292      0.22864282
H      -0.24878443     -1.35267909      0.78628537
H      -0.30939818     -1.78217939     -0.95194163
