13
b3lypvtz=-213728.14778598
C      -2.63024667      0.77286304     -0.89116297
C      -1.94712167     -0.09718725     -0.14267561
C      -0.50859402     -0.03268228      0.01114520
N       0.10905263     -0.88940797      0.73836303
C       1.49524680     -0.82908811      0.88955880
N       2.23056122      0.05758195      0.34228632
O       3.57687692     -0.12946109      0.67043055
H      -2.12907693      1.57373973     -1.42158795
H      -3.70453457      0.71268577     -0.99684865
H      -2.44743577     -0.89875845      0.38802764
H       0.01319061      0.77052379     -0.51603283
H       1.92943997     -1.60164763      1.51867558
H       4.01264149      0.59083850      0.20372090
