11
b3lypvtz=-189675.26996217
C      -2.42058852      0.10070049     -0.05434649
N      -1.07009477     -0.05612383      0.43597575
C      -0.11688684      0.14198407     -0.37707957
C       1.24454415      0.00851275      0.02681600
C       2.41466398     -0.08842392      0.30737415
C       3.73420540     -0.20123866      0.63657432
N       4.85413538     -0.29581125      0.91025037
H      -2.48096203      0.38424515     -1.11227713
H      -2.95881318     -0.83669281      0.10035668
H      -2.92665282      0.85478035      0.55192453
H      -0.27355076      0.42392677     -1.42556860
