12
b3lypvtz=-223808.51370818
C      -2.49448581      0.08736170     -0.26148713
C      -1.55499113     -0.84495771     -0.12908701
N      -0.16185610     -0.62226725     -0.15527867
N       0.19767655      0.44095322      0.38461717
N       1.52995219      0.70876434      0.27641206
C       2.49638824      0.04651446     -0.46407574
O       3.64846663      0.40829480     -0.46796259
H      -2.24034450      1.13199180     -0.37323753
H      -3.53952293     -0.18639166     -0.27860465
H      -1.80014158     -1.89825376     -0.08109717
H       1.81394596      1.53319573      0.78356902
H       2.10481247     -0.80540567     -1.02796777
