17
b3lypvtz=-191970.1361769
C       2.34550693      0.15559146     -0.08821869
C       0.87445860      0.46217929     -0.30970947
C      -0.03860282     -0.66981333     -0.78435422
N      -0.07705017     -1.52050231     -1.70838462
C      -0.97608725     -0.41326026      0.38444899
N       0.04211130      0.54133946      0.92843860
C      -2.33521990      0.16864843      0.01924548
H       2.84972449     -0.03449663     -1.03872248
H       2.46057381     -0.71952097      0.55117718
H       2.84445174      0.99812337      0.39342845
H       0.77019232      1.34032977     -0.95978306
H       0.72302220     -1.42824169     -2.33736087
H      -1.10871124     -1.28027175      1.03706554
H      -0.32916737      1.46479512      1.11478080
H      -2.94876259     -0.58639197     -0.47398778
H      -2.86235193      0.50231308      0.91552788
H      -2.23408810      1.01917894     -0.65834249
