14
b3lypvtz=-201302.13729376
C      -2.51704974      0.27656963      0.00000934
N      -1.47579714     -0.72719715      0.00000166
C      -0.27130819     -0.30233737     -0.00000531
N       0.25264687      0.98758203     -0.00000462
H      -0.31589182      1.81206890     -0.00001855
C       1.64985319      0.95566875      0.00000701
C       2.01867044     -0.33684399      0.00001232
N       0.85992291     -1.10476010     -0.00001350
H       0.79570637     -2.10517750      0.00005723
H      -3.49097629     -0.21195066      0.00001882
H      -2.48638591      0.93056281      0.88638187
H      -2.48640261      0.93055974     -0.88636603
H       2.24618026      1.84872155      0.00001142
H       2.99859065     -0.77613265      0.00001335
