13
b3lypvtz=-190452.2035482
C      -2.42645075     -0.44207977     -0.18613570
C      -1.25238285     -0.45404249      0.42628605
C       0.04587572     -0.04104222     -0.23918091
C       1.04034400     -1.11612155     -0.14971143
N       1.82720536     -1.95009511     -0.05448048
C       0.60283016      1.22988026      0.41386414
N       0.70929421      2.36647574     -0.11876821
H      -2.52856046     -0.15450496     -1.22548076
H      -3.33139920     -0.72518513      0.33370816
H      -1.17352950     -0.75371349      1.46504362
H      -0.13818018      0.16433727     -1.29638794
H       0.91321746      1.11209033      1.45301091
H       0.39648404      2.36505912     -1.09201244
