18
b3lypvtz=-205217.40860998
C      -2.13039189     -0.56655977      0.29816888
C      -0.80178851     -0.21019674     -0.34251385
O      -0.69440177      1.21724193     -0.40283936
C       0.67850217      1.56038785     -0.24765669
C       1.18968628      0.57516729      0.79913719
C       0.45790878     -0.72182817      0.41390265
N       1.29451523     -1.52358216     -0.49047343
H      -2.28386757     -1.64765721      0.29374988
H      -2.16835696     -0.21367005      1.33003273
H      -2.95041374     -0.10325902     -0.25075099
H      -0.76334586     -0.60807181     -1.36491435
H       1.21920778      1.43886409     -1.19364849
H       0.72960614      2.60459228      0.05798037
H       2.27295399      0.45232007      0.78783873
H       0.88758908      0.90196051      1.79525070
H       0.15356077     -1.27550403      1.30976516
H       0.76806572     -2.30904902     -0.85734711
H       2.07985536     -1.91663902      0.01645501
