15
b3lypvtz=-216926.62630024
O       2.20290117     -1.09013254     -0.19038267
C       1.01767982     -0.41007804     -0.10881735
C       0.89165408      0.91340319     -0.03896964
C      -0.45796075      1.56624788      0.09596980
O      -1.49111675      0.64741953      0.41520619
C      -1.43908940     -0.52313414     -0.38439611
C      -0.16820901     -1.32371148     -0.10719024
H       2.93350953     -0.46310698     -0.14201822
H       1.75996544      1.56341499     -0.07125246
H      -0.71663650      2.10976096     -0.82719682
H      -0.45112959      2.29846039      0.90626067
H      -2.32958316     -1.10103305     -0.14055759
H      -1.48644365     -0.25524124     -1.44881063
H      -0.23533369     -1.83762949      0.85598285
H      -0.03050754     -2.09453997     -0.87032778
