18
b3lypvtz=-205214.93908409
C      -1.38893053      0.05460131      1.54185717
C      -0.66049616      0.27862360      0.24065392
C      -1.33481841      1.23397852     -0.70642317
C       0.47368317     -0.39310896     -0.02829877
N       1.04013840     -1.30812705      0.87813228
C       1.28402580     -0.25130873     -1.29639645
O       2.69404735     -0.33396322     -1.05943161
H      -0.70446267     -0.20338673      2.35151461
H      -1.93133570      0.95443697      1.84002436
H      -2.13395862     -0.74755244      1.46880914
H      -1.49093171      2.20759335     -0.23012391
H      -0.78685833      1.40037331     -1.63097236
H      -2.32922735      0.86836247     -0.98643436
H       1.82690714     -1.81260016      0.50096242
H       0.39201130     -1.90685419      1.36290964
H       1.07338430     -1.08623596     -1.97047250
H       1.03962871      0.67049668     -1.82281229
H       2.93699330      0.37447124     -0.45369812
