19
b3lypvtz=-192741.55390446
C       1.87640138      0.63155556      0.74325161
C       1.07592546     -0.08473295     -0.05189261
N       1.40205801     -1.37858429     -0.48066405
C      -0.20532727      0.46293439     -0.66413674
N      -0.46232081      1.82659884     -0.20240070
C      -1.41469280     -0.49409764     -0.48437840
C      -1.78929417     -0.80093225      0.96537134
H       2.78182347      0.20213319      1.15401661
H       1.67706409      1.67125753      0.93939265
H       0.63165874     -2.02474005     -0.54685626
H       2.17928898     -1.78903137      0.01434430
H      -0.02207712      0.53098053     -1.74189245
H      -1.26814765      2.20892815     -0.68157766
H      -0.66655884      1.83981799      0.78990239
H      -2.26601861     -0.03181610     -0.99191365
H      -1.23494425     -1.42774854     -1.02625862
H      -2.65898876     -1.45794559      1.00987212
H      -2.04244016      0.10746458      1.51480703
H      -0.97201770     -1.28964598      1.49834010
