16
b3lypvtz=-204466.77909157
C       2.77565086     -0.08295706     -0.00000390
N       1.43514872     -0.63547214     -0.00010221
C       0.31230452      0.13849662      0.00005564
O       0.34796192      1.36053606      0.00031377
C      -0.97487585     -0.62275305     -0.00011875
C      -2.14468896     -0.01598310     -0.74522863
C      -2.14463543     -0.01641821      0.74544023
H       3.33149007     -0.39241709      0.88758305
H       3.33151574     -0.39218516     -0.88765474
H       2.68504181      0.99990381      0.00013752
H       1.32437492     -1.63405243     -0.00033308
H      -0.90184685     -1.70282012     -0.00043084
H      -2.80318148     -0.69562450     -1.26745267
H      -1.94955409      0.92406045     -1.24043445
H      -2.80308180     -0.69637053      1.26731739
H      -1.94946712      0.92333246      1.24118867
