13
b3lypvtz=-239680.47444164
C      -2.41909733     -0.00180748     -0.18869370
N      -1.08631272     -0.51612877      0.08358844
C       0.06326660      0.04897603     -0.32795302
F      -0.17126954      1.05265582     -1.20921297
N       1.22017650     -0.31286390      0.04233789
C       2.36805252      0.29582315     -0.46473109
N       3.55087366     -0.01696474     -0.13019316
H      -3.14102222     -0.76427636      0.09416888
H      -2.63557818      0.91027790      0.37265532
H      -2.53883117      0.20586951     -1.24949406
H      -0.96586146     -1.22129394      0.79022864
H       2.23448369      1.09307030     -1.19610870
H       3.52091964     -0.77343752      0.55680753
