22
b3lypvtz=-183434.17839288
C       3.18059036     -0.88289331      0.28891436
C       2.66022110      0.41971842     -0.32152636
C       1.26566944      0.83713153      0.16124354
C       0.13385521     -0.10057883     -0.26550859
C      -1.24311122      0.39241058      0.16774341
N      -2.29151466     -0.54823727     -0.20686455
C      -3.62972415     -0.10604240      0.15563820
H       2.55726602     -1.73700453      0.02080988
H       4.19433923     -1.09813502     -0.05309030
H       3.20567855     -0.82152309      1.37963685
H       3.36332420      1.22442172     -0.08947252
H       2.65142802      0.33259638     -1.41284997
H       1.27468065      0.91698866      1.25394834
H       1.05225556      1.84294757     -0.21378217
H       0.14894290     -0.20713380     -1.35695296
H       0.28334184     -1.10118399      0.14492516
H      -1.41808227      1.40302738     -0.24254469
H      -1.26556344      0.49886362      1.25746139
H      -2.24798155     -0.72181208     -1.20413475
H      -3.71941489     -0.06646448      1.24358044
H      -3.89665983      0.88983983     -0.23392255
H      -4.36591405     -0.82305890     -0.20908014
