14
b3lypvtz=-222130.3117713
C       1.93434115     -1.07484044     -0.53094156
C       1.02849167     -0.68555464      0.63424702
N      -0.21237736     -0.03399315      0.20826708
N      -0.31455248      1.27869842     -0.08138179
N       0.76597018      1.89850819      0.00679625
N      -1.31197691     -0.84063793      0.12943744
N      -2.35412044     -0.31164571     -0.28989038
H       2.83030350     -1.56873186     -0.15117149
H       1.42432919     -1.76475220     -1.20408056
H       2.24258006     -0.19639737     -1.09496268
H       1.54099720      0.00414713      1.30306809
H       0.71877450     -1.56294223      1.19718138
H       0.53516384      2.87032496     -0.21371068
H      -3.04957410     -1.06228917     -0.26545011
