17
b3lypvtz=-215254.07867553
C       1.40162957     -1.86658827     -0.07788560
N       1.66438298     -0.47048180      0.25641600
C       0.71267960      0.50061479     -0.29296275
C       1.23148182      1.91615546     -0.04029847
C      -0.67818012      0.33344070      0.26487176
N      -1.62845892     -0.06737328     -0.47213925
O      -2.83153785     -0.18847564      0.25070695
H       2.15268183     -2.49269879      0.40411910
H       1.50080066     -2.00242504     -1.15646185
H       0.40792164     -2.23179641      0.21199291
H       1.74105429     -0.35267652      1.26031388
H       0.65572710      0.32244084     -1.36898683
H       0.57410865      2.66093550     -0.48977806
H       1.29035132      2.12425344      1.03138115
H       2.23113536      2.02251920     -0.45996555
H      -0.84451295      0.53456292      1.32577615
H      -3.45102400     -0.49065112     -0.42110754
