17
b3lypvtz=-194359.27302067
O       2.76302473     -0.31800849      0.36070424
C       1.52177855      0.34671446      0.22439715
C       0.63230674      0.01949563     -1.00827904
C      -0.54703920     -0.11223420     -0.03803046
C      -1.79977699      0.70883445     -0.07505379
C      -1.86002294     -0.79402283     -0.23873914
C       0.41986362     -0.20894114      1.14786959
H       3.40816395      0.10435013     -0.21479165
H       1.64222820      1.42706859      0.35067008
H       0.56171356      0.76841100     -1.79818313
H       0.92254552     -0.94105873     -1.43852097
H      -2.16231848      1.13222309      0.85297241
H      -1.98568135      1.32099956     -0.94835691
H      -2.26243712     -1.37745371      0.57944116
H      -2.08607002     -1.18856694     -1.22104649
H       0.64522288     -1.24323242      1.41426732
H       0.18669834      0.35532156      2.05057961
