19
b3lypvtz=-171820.2444708
C      -2.06311093     -1.11245370     -0.26183153
C      -1.31681407      0.02036568      0.42677969
C      -0.89782180      1.28593575     -0.39971752
C       0.54938910      1.08847305      0.05534113
C       1.06037776     -0.25281716     -0.37719536
C       2.51657717     -0.57108123     -0.12976437
C       0.15402077     -0.18025884      0.81887061
H      -1.53056701     -1.47024115     -1.14486024
H      -2.19421484     -1.96112601      0.41364810
H      -3.05577835     -0.78879763     -0.58390352
H      -1.88366884      0.34342572      1.30163195
H      -1.35791411      2.19933128     -0.02600663
H      -1.05949680      1.23167101     -1.47932767
H       1.22492364      1.87511327      0.36329562
H       0.66545616     -0.66798400     -1.30084070
H       2.86332386     -0.12459902      0.80475814
H       3.14787505     -0.18675648     -0.93392690
H       2.68073892     -1.64876638     -0.06208118
H       0.49647632     -0.51650817      1.78924136
