15
b3lypvtz=-214518.55041734
C      -1.35812476      0.94175684      0.41039979
C      -1.68177853     -0.51917834      0.09370625
N      -0.42516613     -1.17381224      0.46636947
C       0.62376422     -0.26007171      0.26341396
C       1.93762571     -0.51787365      0.30066074
O       2.84500132      0.54697208      0.23475212
N       0.05464182      0.99652639      0.04035004
H      -1.95244310      1.63975099     -0.17874504
H      -1.52604325      1.14688707      1.47486371
H      -2.51641629     -0.90155773      0.68068783
H      -1.91872230     -0.63236535     -0.97147676
H      -0.27433256     -2.09543618      0.08790783
H       2.33492336     -1.50446522      0.49725981
H       3.25098775      0.56051533     -0.63801969
H       0.60608273      1.77235173      0.37271882
