17
b3lypvtz=-191957.02883431
N       2.18619817      0.05260926     -0.17561210
C       0.79121692      0.13839113     -0.57612829
C      -0.10564490      0.94744648      0.41635695
C      -1.46594838      0.80023076     -0.27512386
N      -1.39882615     -0.65255902     -0.65610999
C      -0.09917500     -1.02241957     -0.05205442
C      -0.08070001     -0.31322781      1.32902766
H       2.67325033     -0.63482722     -0.73889610
H       2.65264684      0.93868777     -0.33107028
H       0.63612200      0.36866862     -1.63659704
H       0.17757368      1.93660236      0.77115814
H      -2.30148205      1.01991451      0.39251843
H      -1.56082647      1.42816784     -1.16330363
H      -2.14534595     -1.16519278     -0.20219108
H       0.16646420     -2.06775022     -0.19488640
H      -0.93327535     -0.48137099      1.98938431
H       0.85954512     -0.42366212      1.85761769
