12
b3lypvtz=-226259.53798983
N       2.10696076     -0.32587870      0.09619967
C       0.77845103     -0.08629560      0.06062942
C       0.02842742      0.88079709      0.66489611
C      -1.34728316      0.63851018      0.32837941
O      -2.36686556      1.22898960      0.63130537
C      -1.31559345     -0.61260780     -0.56686117
O       0.08040153     -0.97977964     -0.66978471
H       2.71655029      0.39374965      0.43963648
H       2.48476650     -0.96347249     -0.58381980
H       0.39571801      1.67708116      1.28856957
H      -1.86361118     -1.44277856     -0.12337833
H      -1.69782220     -0.40821488     -1.56587203
