18
b3lypvtz=-181897.23380845
C      -1.83795295     -1.05829717      0.45364868
C      -1.17694066      0.17557294     -0.10342828
C      -1.84834374      1.05755445     -0.84140617
C       0.26769912      0.30953593      0.23349083
C       1.20096635      1.27526463     -0.44361766
C       1.33755860     -0.19464873     -0.71647035
N       2.47461955     -0.87307124     -0.14783245
H      -1.77428584     -1.07230405      1.54555971
H      -1.33597341     -1.96354426      0.10034192
H      -2.88886848     -1.11594343      0.17259490
H      -2.89330800      0.90865114     -1.08137166
H      -1.38568478      1.95692761     -1.22405209
H       0.50584123      0.10245538      1.27114853
H       0.81896223      1.90403521     -1.23474541
H       1.96548353      1.72806806      0.17190339
H       0.96571275     -0.52403112     -1.68492237
H       3.29685768     -0.74600386     -0.72689606
H       2.30755683     -1.87002152     -0.07724546
