14
b3lypvtz=-226992.94969621
N       0.39403561      1.83605443     -0.01842082
C       0.04909875      0.61716006      0.67328300
C      -1.08425404     -0.23155703      0.07454088
O      -2.09160582      0.07511223     -0.49464829
C      -0.28468709     -1.52347800      0.24491877
C       0.97510222     -0.62900280      0.40590589
O       1.65816140     -0.47080648     -0.81077418
H       0.63564081      2.59392772      0.60370183
H      -0.36585331      2.14063715     -0.61518766
H      -0.11579310      0.74449876      1.74730477
H      -0.55755241     -2.06100080      1.15527731
H      -0.28608969     -2.20535962     -0.60288650
H       1.65660948     -0.90149049      1.21416606
H       1.68007019      0.48811988     -0.97621705
