12
b3lypvtz=-202909.36121362
C       2.52081115     -0.01893185     -0.22280810
C       1.09068848     -0.06809479      0.03522505
C      -0.08957930     -0.10504794      0.25228932
C      -1.53131524     -0.17059533      0.49974141
C      -2.17789052      1.11245379      0.13087860
N      -2.69746514      2.09509410     -0.16348325
O      -2.17000779     -1.26520257     -0.14099400
H       3.06992940     -0.62980534      0.49546638
H       2.89108515      1.00512164     -0.15079823
H       2.74742094     -0.38801421     -1.22453565
H      -1.71169279     -0.32389127      1.56689448
H      -1.94198434     -1.24308627     -1.07787600
