12
b3lypvtz=-223855.0092109
C       0.87981548      1.17942964      0.12169876
C       1.23746211     -0.12723019      0.00208124
N       0.06673402     -0.84457088     -0.11361231
C      -0.95599411      0.07200925     -0.06105418
N      -0.50929846      1.28478910      0.08971890
N      -2.28514194     -0.31801613     -0.23962651
O       2.40968168     -0.81591276     -0.01389115
H       1.51317733      2.04172522      0.24106553
H      -0.00239044     -1.82124067     -0.34068155
H      -2.87519138      0.50291829     -0.24464594
H      -2.61364159     -0.96174892      0.46949658
H       3.13478730     -0.19215195      0.08945066
