16
b3lypvtz=-181138.63729171
N      -2.28482544     -0.14145834     -0.00000110
C      -1.02730300     -0.01673383     -0.00000203
C      -0.26278049      1.30827567      0.00000666
C       1.16631192      0.73254484      0.00000590
C       1.05592238     -0.39759360      1.06128634
C       0.09702072     -1.02962140     -0.00000883
C       1.05592624     -0.39757836     -1.06129116
H      -2.55406995     -1.12673853     -0.00000742
H      -0.49260246      1.90472279      0.88397017
H      -0.49259839      1.90473124     -0.88395231
H       1.99318154      1.43766264      0.00001226
H       0.64463310     -0.15089520      2.04061287
H       1.97696490     -0.96858693      1.16783705
H      -0.17361125     -2.08261974     -0.00001690
H       1.97696924     -0.96857000     -1.16784684
H       0.64464094     -0.15086524     -2.04061566
