11
b3lypvtz=-236310.90516812
N      -2.84618744      0.46116275     -0.13517954
C      -1.85050887     -0.30045565      0.01084690
N      -0.52109113      0.15049178      0.12697959
C       0.36594768     -0.73088134      0.26204463
O       1.69173859     -0.45478756      0.43642752
C       2.31730781      0.62415039     -0.16466675
O       1.90048405      1.26948118     -1.06604426
H      -2.53449647      1.43448415     -0.16136158
H      -2.01518931     -1.38188643      0.05342568
H       0.19881362     -1.80793090      0.31699710
H       3.29318148      0.73617164      0.32043070
