14
b3lypvtz=-229599.56855381
C      -1.47136134      1.77480317      0.06257906
C      -0.81451244      0.43223444     -0.05427922
C      -1.47920498     -0.72421058      0.06803218
N      -0.94918141     -2.01865509     -0.02759393
N       0.55345186      0.48536594     -0.43926432
C       1.43193509      0.04955641      0.32533432
F       2.72311126      0.07957487     -0.04082600
H      -1.34882796      2.34538641     -0.86170284
H      -1.02588685      2.37015978      0.86518043
H      -2.53607722      1.67108705      0.26894984
H      -2.53857964     -0.68899498      0.28464507
H      -1.60781989     -2.69057234     -0.39225049
H      -0.07946584     -2.06910001     -0.54091094
H       1.31828636     -0.37838008      1.31997083
