16
b3lypvtz=-227785.00226333
C      -1.26414864      1.37254370     -0.48369547
C      -1.13352940     -0.13447888     -0.28440572
N      -2.42945993     -0.67334173      0.12913604
C       0.01313658     -0.48872869      0.70406457
C       1.37550138     -0.07265922      0.21567861
O       2.03759259      0.83867601      0.64224374
O       1.79397520     -0.84770385     -0.81920488
H      -2.04961760      1.58450681     -1.20782655
H      -1.52773946      1.86293908      0.45731267
H      -0.33286422      1.81707659     -0.83457313
H      -0.89209170     -0.59543356     -1.24471528
H      -2.38487348     -1.67725307      0.25925672
H      -2.71877694     -0.27026292      1.01411443
H       0.01658228     -1.56976465      0.85511736
H      -0.15949784      0.00080444      1.66229794
H       2.65765319     -0.50394606     -1.09233805
