16
b3lypvtz=-204453.21632143
N       1.82256436      0.58894792      1.46994376
C       1.56805919      0.21709481      0.29230554
O       2.52697596     -0.35106754     -0.50991462
C       0.20895509      0.33470524     -0.32823946
C      -0.96603041      0.86275092      0.52296276
C      -1.87429909     -0.22342864     -0.10765591
C      -0.60224340     -0.98304745     -0.56119625
H       2.79830341      0.41030380      1.70509695
H       2.14884651     -0.58299979     -1.36554384
H       0.29688539      0.89168336     -1.26627514
H      -1.24795610      1.90461392      0.38265711
H      -0.77260286      0.69023716      1.57940555
H      -2.44191056      0.15718804     -0.95699181
H      -2.55633631     -0.75268080      0.55549553
H      -0.59741781     -1.40982636     -1.56403603
H      -0.31189337     -1.75447457      0.15188587
