14
b3lypvtz=-231994.23432708
F      -2.42670588      1.30666686      0.14299848
C      -1.92356157      0.02155162     -0.01946584
C      -0.43707933      0.01421312     -0.00338820
C       0.35782523     -1.25527804     -0.16036049
O       1.72372611     -0.85219371     -0.09165959
C       1.80927703      0.56520730      0.09508066
C       0.38991956      1.03998177      0.14059233
H      -2.32814052     -0.59879432      0.78729018
H      -2.30812446     -0.36900548     -0.96753485
H       0.16450823     -1.75321964     -1.11995210
H       0.14382471     -1.98293502      0.63395422
H       2.37633272      1.01081133     -0.73159140
H       2.35551399      0.78114299      1.02163696
H       0.10268417      2.07195122      0.27239965
