13
b3lypvtz=-237060.13742373
C      -2.55667247     -0.89271690      0.00005132
N      -1.12394509     -0.67885244     -0.00009034
C      -0.56168329      0.55282653     -0.00005987
O      -1.18118222      1.60575721     -0.00002063
C       0.93581377      0.58207871     -0.00005453
N       1.60355360     -0.49687805      0.00002034
O       2.97512800     -0.27366924      0.00003924
H      -2.87195878     -1.44493763      0.88762785
H      -2.87192891     -1.44591754     -0.88691713
H      -3.04056409      0.08025984     -0.00047730
H      -0.49626732     -1.46625124     -0.00000861
H       1.39806583      1.56481317     -0.00009417
H       3.34578297     -1.16295543      0.00010483
