17
b3lypvtz=-194365.51876679
C       2.04294777      0.53311453      0.32734444
C       0.74875605      0.47025932     -0.45930896
O      -0.24152317      1.39924302      0.07404094
C      -1.37509550      0.53588640      0.29037630
C      -1.41748524     -0.32590250     -0.99137017
C      -0.06756234     -0.83020410     -0.39267345
C      -0.75934196     -0.68897046      0.99958268
H       1.90859289      0.21239385      1.36010671
H       2.79980886     -0.10189470     -0.13881828
H       2.42146948      1.55598482      0.33916136
H       0.94825500      0.74427673     -1.50044010
H      -2.21047205      1.11380512      0.67344400
H      -1.39400762      0.20041213     -1.94543762
H      -2.19741743     -1.08438220     -0.97997878
H       0.41906762     -1.74465373     -0.72233153
H      -1.47702127     -1.48528470      1.18513395
H      -0.14897109     -0.50408353      1.88136852
