14
b3lypvtz=-201241.62440911
C      -2.41423527     -0.70948921     -1.43485389
C      -1.60638429     -0.12391588     -0.76640111
C      -0.63406276      0.57217492      0.09378115
C       0.68498701     -0.15978268      0.09611306
N       1.72091924      0.38783967     -0.38756112
N       2.88780667     -0.32855718     -0.43033726
N      -1.10407631      0.75837946      1.48094390
H      -3.12522360     -1.21973429     -2.03538895
H      -0.43781362      1.56082938     -0.32368739
H       0.69600374     -1.17042385      0.51926641
H       2.97640350     -1.05206604      0.27876806
H       3.67902541      0.29607592     -0.43272169
H      -1.37960556     -0.13890189      1.86732303
H      -1.94374415      1.32757166      1.47475579
