17
b3lypvtz=-194372.57949711
C       2.22104749      0.40239379     -0.26891387
C       0.97922789     -0.17307107      0.37782358
C       0.02898051     -0.94997167     -0.55624688
C      -1.34992953     -0.66487274      0.02903067
C      -1.97147889      0.68470875     -0.26687639
C      -1.15565102      0.48319497      0.97500139
O       0.18452059      0.90712642      0.91183488
H       2.79890257      0.97950873      0.45320551
H       2.85584601     -0.39867525     -0.65216281
H       1.95121739      1.05931959     -1.09722473
H       1.26856427     -0.82559580      1.21274053
H       0.11764711     -0.59228053     -1.58523835
H       0.25447639     -2.01670336     -0.55548909
H      -2.00089527     -1.49138123      0.27518355
H      -1.53284896      1.28919594     -1.04990356
H      -3.04488453      0.77474590     -0.16155977
H      -1.60474203      0.53235754      1.95879535
