14
b3lypvtz=-180349.43437061
C      -3.57413826     -0.48293595      0.14435469
C      -2.43854563     -0.16659531     -0.08684528
C      -1.10732635      0.20802207     -0.44563446
N      -0.20699892      0.42573015      0.42088202
C       1.11253574      0.80620339     -0.05983380
C       2.16034471     -0.12771719      0.47783376
C       3.07639696     -0.73228822     -0.26529084
H      -4.57299372     -0.76164223      0.37180956
H      -0.91770517      0.29644106     -1.52307213
H       1.30727702      1.81270823      0.32943214
H       1.16896767      0.85548318     -1.15598773
H       2.13086688     -0.28795620      1.55011904
H       3.82270895     -1.38073466      0.17414205
H       3.11810213     -0.59836632     -1.33999901
