13
b3lypvtz=-234639.78834658
C      -3.30406108     -0.30836852      0.20382287
N      -2.12152838      0.42691784     -0.20859790
N      -0.96531907     -0.27369764     -0.16129771
N       0.04337647      0.43997065     -0.01313741
N       1.19827340     -0.29172968     -0.06173473
C       2.41140299      0.31998538      0.08552205
O       3.46653322     -0.27053403      0.06072435
H      -4.18359650      0.26938958     -0.07517266
H      -3.33718324     -0.50976418      1.27999088
H      -3.32990689     -1.25701858     -0.32858337
H      -2.03414790      1.37936269      0.13374854
H       1.14026030     -1.29439594     -0.20610021
H       2.30592768      1.40618543      0.22754031
