14
b3lypvtz=-226997.25984543
C      -1.95819520      0.44321871     -0.09277184
C      -1.11372201     -0.68019516     -0.63338465
O      -1.83071424     -1.75459122     -1.09193331
N       0.14361598     -0.77366229     -0.72370209
C       1.01674429      0.21792404     -0.30857968
C       2.33304550      0.03210492     -0.44200122
O       3.23237485      0.98206983     -0.04642192
H      -2.57176468      0.08802956      0.73939774
H      -2.63313328      0.81563226     -0.86792959
H      -1.35938740      1.27668306      0.26159864
H      -2.77119671     -1.58560132     -0.97964652
H       0.66536482      1.15171480      0.12646804
H       2.72409117     -0.88286046     -0.87022618
H       4.12297690      0.66963328     -0.22086741
