17
b3lypvtz=-171078.25459068
C      -2.83799450      0.00000162     -0.18549861
C      -1.65301413      0.00000099      0.41316355
C      -0.32813096      0.00000068     -0.28125296
C       0.57047651      1.22683880      0.04919979
C       1.96734507      0.66437519     -0.02623408
C       1.96734443     -0.66437619     -0.02623539
C       0.57047534     -1.22683848      0.04919882
H      -3.76094461      0.00000164      0.37947177
H      -2.92677980      0.00000176     -1.26597459
H      -1.61301034      0.00000057      1.50055123
H      -0.50013446      0.00000103     -1.36037781
H       0.39352777      2.05544925     -0.63933816
H       0.36496615      1.61263316      1.05507990
H       2.85251214      1.28683626     -0.03428345
H       2.85251095     -1.28683807     -0.03428419
H       0.39352515     -2.05544877     -0.63933896
H       0.36496528     -1.61263245      1.05507914
