14
b3lypvtz=-226988.21896503866
C       0.01931210     -0.70201144     -0.48716148
C      -1.15895879      0.27593178     -0.57441787
N      -1.71386410      0.53827707      0.75624564
C       1.14982033     -0.13028723      0.31898713
C       2.42991895      0.23193757     -0.25082456
O       3.17135963      0.94053257     -0.84982142
O       2.45401534     -0.96172415      0.33441905
H       0.36176340     -0.95712059     -1.49106339
H      -0.31439125     -1.63068189     -0.01259872
H      -1.88794783     -0.12809625     -1.28819356
H      -0.80998652      1.22516866     -0.98584051
H      -2.24624927     -0.25857279      1.08606356
H      -2.34866820      1.32625620      0.73340286
H       0.89387619      0.23039049      1.30740636
