12
b3lypvtz=-249578.01574846
O      -2.69496980     -0.56795183     -0.51864622
C      -2.10419950      0.39971597     -0.08696596
N      -0.75975827      0.47077794      0.06861229
C       0.09706978     -0.64291208     -0.28177956
C       1.56772535     -0.39181741     -0.04451736
O       2.42580098     -1.19791248     -0.27598749
O       1.82837693      0.84022078      0.45868925
H      -2.61328287      1.32811697      0.22479621
H      -0.33991249      1.30857741      0.43356226
H      -0.17456218     -1.53790890      0.28313404
H      -0.02083697     -0.91062528     -1.33457770
H       2.78854904      0.90171891      0.57388023
