11
b3lypvtz=-212955.82453087
C      -1.40170933     -0.53565010      0.15856694
C      -0.41466546     -1.41015728     -0.10674507
O       0.71806330     -1.02192701     -0.76639744
N       1.50458073     -0.17236445      0.14004810
C       1.00980166      0.99933794      0.18850266
C      -0.29594184      1.46223213     -0.28638430
N      -1.39250238      0.79743841     -0.19769055
H      -2.32453822     -0.89706217      0.59343653
H      -0.50488177     -2.47241435      0.09177985
H       1.60966125      1.70185967      0.76607864
H      -0.37166794      2.50990721     -0.56769537
