17
b3lypvtz=-217673.7368773
C       1.47670181     -0.41745460      0.37264468
C       0.37298617     -1.50953622      0.29558144
O      -0.67285094     -1.18372666     -0.60764218
C      -1.58670555     -0.19314254     -0.15336643
C      -0.93513621      0.97282518      0.58176896
O       0.10907840      1.61211067     -0.12448708
C       1.20527021      0.78331683     -0.53015323
H       2.43248743     -0.84249101      0.05825436
H       1.61430653     -0.07893994      1.40175700
H      -0.03202670     -1.71898648      1.29277007
H       0.78894953     -2.44070990     -0.08699551
H      -2.09978536      0.15870066     -1.04894249
H      -2.33406816     -0.64167089      0.51808493
H      -1.69382206      1.73815011      0.75613201
H      -0.58686931      0.64266301      1.56819547
H       2.07759525      1.43891584     -0.53507544
H       1.03530497      0.43814194     -1.55320355
