16
b3lypvtz=-204427.22219956
N      -3.58613948     -0.19658227      0.02482317
C      -2.18115363     -0.43673328     -0.30652505
C      -1.29838295      0.62043387      0.37436179
C       0.11896351      0.46892870      0.06811805
C       1.28019782      0.32113859     -0.20867157
C       2.70129578      0.16015290     -0.51005926
O       3.40351640     -0.64097852      0.43888080
H      -3.77078976     -0.43583794      0.99261325
H      -4.18951010     -0.78366500     -0.53771731
H      -2.06624224     -0.34534927     -1.38766392
H      -1.81537324     -1.43409711     -0.03016323
H      -1.64625809      1.61176657      0.07333958
H      -1.44076407      0.56325795      1.45893758
H       2.82482989     -0.34497824     -1.46959087
H       3.16582004      1.14941876     -0.60579973
H       3.20377112     -0.30215171      1.31732071
