17
b3lypvtz=-191986.01955865
C      -2.48223456     -0.29502967      0.07492387
C      -1.05789973     -0.12713749     -0.43982335
C      -0.02004434     -1.06443087      0.22533344
C       1.20916028     -0.15854648      0.48839751
N       2.37635485     -0.28391313     -0.39021229
C       0.58721758      1.21180342      0.29725544
N      -0.57528088      1.25130334     -0.20267979
H      -3.15074656      0.42071234     -0.40331962
H      -2.52189037     -0.12836322      1.15340496
H      -2.84986862     -1.30248853     -0.12878946
H      -1.07249622     -0.26262555     -1.52639626
H      -0.41755816     -1.44453862      1.16870810
H       0.23558480     -1.92479582     -0.39323635
H       1.57932375     -0.27323450      1.50971456
H       2.84519978     -1.16878576     -0.23928625
H       2.09963934     -0.25103841     -1.36490650
H       1.13516807      2.12217793      0.52540100
