14
b3lypvtz=-229600.95376215
C      -2.09888058     -0.84532939      0.01206079
C      -1.00105531      0.17504038      0.00486212
N      -1.43841294      1.48837612     -0.07947435
C       0.30384249     -0.17691506      0.00584112
F       0.60599872     -1.51190368     -0.02143117
C       1.46429970      0.68499883      0.01948154
N       2.69117845      0.33722874     -0.00174292
H      -2.70279819     -0.75153934     -0.89332018
H      -1.70599480     -1.85467573      0.06945738
H      -2.76178871     -0.68181623      0.86670020
H      -2.32658371      1.66999257      0.36072980
H      -0.76613604      2.21644930      0.09680929
H       1.25678027      1.75592217      0.05605626
H       2.76650165     -0.68074068     -0.04127490
