18
b3lypvtz=-181888.65456795
C       2.01798500     -1.44771739      0.41853741
C       1.30316748     -0.59538270     -0.03378002
C       0.42838183      0.44647680     -0.57527548
C       0.91750636      1.84737735     -0.17010277
C      -1.05998815      0.19277947     -0.21422471
C      -1.33735880      0.21090218      1.29264908
N      -1.49077773     -1.03753138     -0.88711390
H       2.65876871     -2.19699107      0.81145025
H       0.47484254      0.37051930     -1.66551628
H       0.26004204      2.61142920     -0.58843887
H       0.94162730      1.96684525      0.91243416
H       1.92529372      2.02151888     -0.54574985
H      -1.61858104      1.01156390     -0.67766277
H      -2.39808444      0.03043289      1.47701629
H      -1.08375073      1.16973168      1.74886479
H      -0.76751854     -0.56928781      1.80061389
H      -2.47184449     -1.21193634     -0.70200666
H      -0.97840705     -1.83078221     -0.51419756
