15
b3lypvtz=-191204.79580957
C      -2.54241711     -0.52002938     -0.29110606
N      -1.59813446     -0.36649211      0.53261369
C      -0.41208451      0.29560380      0.14944798
N      -0.32249923      1.54268148     -0.08785640
C       0.78081573     -0.58978019      0.13870306
C       2.11373649     -0.03871901      0.60309961
C       1.89378699     -0.30016920     -0.84798754
H      -3.46139622     -1.00067421      0.03626793
H      -2.48895864     -0.18969508     -1.33297032
H      -1.22837309      2.00100330     -0.01332543
H       0.57361244     -1.62568205      0.36379177
H       2.10582660      0.99143276      0.92830589
H       2.75458836     -0.70555573      1.16262632
H       2.38165393     -1.14972862     -1.30498290
H       1.74369271      0.55708226     -1.48817560
