14
b3lypvtz=-201300.87810815
N      -2.90035852     -0.98444429     -0.28311888
C      -2.22010775     -0.09574446     -0.01643421
C      -1.31480214      1.00021540      0.32032879
C       0.09657150      0.79229696     -0.24762682
N       0.69083841     -0.42353369      0.26352766
C       2.03871981     -0.69232476      0.15517196
N       2.99416660      0.06269541     -0.21040272
H      -1.73247202      1.93014696     -0.06939140
H      -1.26905034      1.08737141      1.40755509
H       0.05839483      0.80692307     -1.34332729
H       0.70598122      1.64025319      0.06789616
H       0.08870277     -1.23183550      0.29815356
H       2.27642415     -1.70822018      0.47015876
H       2.67905148      0.98674350     -0.50183167
