20
b3lypvtz=-182680.59290325
C      -3.42375942      0.19597358      0.08213384
C      -2.10539518     -0.56076326      0.23188249
C      -0.89712667      0.21428152     -0.30757058
C       0.39505525     -0.54154121     -0.17738533
C       1.61205716     -0.00301083     -0.01731482
C       2.85404596     -0.83755611      0.11236559
N       1.86539780      1.37374089     -0.03220243
H      -4.26310133     -0.38346758      0.47024468
H      -3.39906433      1.14473904      0.62347122
H      -3.63321992      0.42128400     -0.96608329
H      -1.93358381     -0.80090086      1.28485270
H      -2.17306227     -1.51969438     -0.29074455
H      -1.09171054      0.47463277     -1.35689240
H      -0.83748618      1.17249257      0.22405895
H       0.33515065     -1.62111098     -0.24373283
H       3.36650248     -0.63243295      1.05827659
H       2.61817525     -1.89883458      0.08128545
H       3.55963774     -0.61189365     -0.69142532
H       2.63201924      1.66846230      0.55376244
H       1.05788613      1.96559674      0.08648059
