13
b3lypvtz=-190438.90787119
C      -0.94549410      1.65612314     -0.41985712
C      -0.48278320      0.44614826     -0.17941762
C      -0.99260765     -0.81747769      0.47950623
N       0.16626107     -1.55516893     -0.10589164
C       0.81519732     -0.28349049     -0.53831534
C       1.98103570      0.12249604      0.24851282
N       2.90136832      0.40913521      0.87839895
H      -0.35356742      2.39484765     -0.94445635
H      -1.93390535      1.95439584     -0.09440198
H      -0.99275270     -0.76232791      1.57300371
H      -1.96152378     -1.19127980      0.14444444
H       0.70987418     -2.09541892      0.55471360
H       1.08889762     -0.27788240     -1.59613970
