10
b3lypvtz=-202155.85027211
C       2.75067360      0.37676711     -0.29944584
C       1.55771162      0.24122129     -0.30782766
C       0.15293155      0.07271686     -0.31658027
C      -0.55992007     -1.07676919     -0.18421240
O      -1.88410718     -0.76623177     -0.25302587
C      -1.90468610      0.58043917     -0.42679665
N      -0.74628856      1.13420851     -0.47325462
H       3.80468444      0.50163537     -0.29267800
H      -0.29846143     -2.10892853     -0.04564386
H      -2.87253786      1.04494119     -0.50739273
