15
b3lypvtz=-214539.68757823
N      -1.76596012     -0.46271090      0.95085086
C      -1.28399125      0.07427590     -0.10077347
N      -2.00972779      0.54712653     -1.17896247
C       0.21332411      0.19932297     -0.28031502
C       1.02144111     -0.48287851      0.81040261
C       2.50354842     -0.27078356      0.69647080
O       3.04905372      0.40239278     -0.14263819
H      -2.78570144     -0.47398394      0.93898484
H      -1.55697492      1.18451471     -1.81276492
H      -2.99172515      0.71990634     -1.04020837
H       0.47462498      1.26085255     -0.32078382
H       0.48837017     -0.20246293     -1.25865401
H       0.83346852     -1.56103040      0.83163349
H       0.70665088     -0.14320399      1.80230630
H       3.10349878     -0.79143754      1.47235137
