14
b3lypvtz=-201298.85472895
C       0.95989860     -0.79838478     -0.35635308
C       0.16057073      0.28506341     -0.05589450
C       1.07176435      1.26831818      0.39074111
N       2.32818388      0.83818949      0.36694340
N       2.23374444     -0.42106023     -0.09136453
C      -1.32765057      0.38918220     -0.19369493
N      -1.96907255     -0.91532644      0.01555086
H       0.70875407     -1.77890844     -0.72007666
H       0.85804747      2.27009827      0.72897108
H       3.06918841     -0.97081178     -0.18446397
H      -1.68926926      1.17623938      0.48224450
H      -1.58595923      0.71520779     -1.20579203
H      -2.96530578     -0.84988300     -0.15617290
H      -1.85289455     -1.20792403      0.97936164
