16
b3lypvtz=-202052.59417176
C      -1.64588416      1.43184186     -0.37836252
C      -1.16871862      0.23677206      0.00230445
N      -2.00525815     -0.80894711      0.43712560
C       0.25104377     -0.14666870     -0.08026818
N       0.54879039     -1.50382971     -0.40135809
C       1.24815689      0.70143713      0.21812609
N       2.60055133      0.34229006      0.12425199
H      -2.68314302      1.69808247     -0.21869960
H      -1.01577748      2.14866447     -0.87998519
H      -2.96843215     -0.53448370      0.56016677
H      -1.65814765     -1.30830867      1.24471349
H       1.28279080     -1.56810838     -1.09758223
H      -0.27200007     -1.98320996     -0.74550569
H       1.03294688      1.72056191      0.49888570
H       2.76530515     -0.63008081      0.35491846
H       3.21350209      0.93568808      0.66178593
