11
b3lypvtz=-257166.58777219
C      -1.21030725     -0.15024314      0.10368003
N      -2.20385863     -0.93115616     -0.00177739
N       0.03637779     -0.61467328     -0.25862908
N       1.15093583      0.14360346     -0.18010084
N       2.16464593     -0.45800762     -0.55106156
O       3.27979808      0.34351977     -0.45717157
O      -1.15952382      1.13301715      0.53487496
H      -3.07893121     -0.50749934      0.28586223
H       0.10076647     -1.56617355     -0.59533115
H       2.97213314      1.20249909     -0.11238121
H      -2.05203633      1.40511359      0.77390319
