12
b3lypvtz=-280466.68250901
C       2.16211082     -0.62306453      0.16400551
N       1.40513266      0.61153011      0.01393835
C       0.05756051      0.78178788     -0.01628232
O      -0.47802286      1.84073289     -0.26320173
C      -0.78251986     -0.46753093      0.33546802
F      -0.53737972     -1.45915935     -0.58298965
F      -2.09146371     -0.16494414      0.28272550
H       3.16042342     -0.37480351      0.51959579
H       1.70290021     -1.27622863      0.90312578
H       2.24777692     -1.17628609     -0.77294703
H       1.91123672      1.43774143     -0.26701642
H      -0.55782511     -0.86793212      1.32771117
