14
b3lypvtz=-201250.26703434
C       2.42344392     -0.42465839     -0.19963473
N       1.16311631      0.04607763      0.35016281
N       0.11345089     -0.79153348      0.08571870
C      -1.08580291     -0.33214239      0.05351316
C      -1.41482013      1.04504780      0.25560067
C      -1.62501968      2.21442378      0.44260284
N      -2.14919014     -1.19153121     -0.26265959
H       2.63156391     -1.41945471      0.19152892
H       3.21528158      0.24914588      0.12803622
H       2.43162618     -0.47671035     -1.29560607
H       0.97328273      1.02314140      0.14338611
H      -1.83104279      3.24254848      0.60927444
H      -1.86341212     -2.16030045     -0.22011581
H      -2.98247776     -1.02405395      0.28305521
