14
b3lypvtz=-226990.87050005
C       1.87648521      1.04130535      0.15431320
C       0.80836296      0.14258964     -0.38934159
N      -0.33902893      0.05283336      0.15568426
C      -1.31414135     -0.78770564     -0.36385544
C      -2.50645076     -0.82844067      0.25472775
O      -2.81134225     -0.10222078      1.34516794
O       3.09743238      0.33731801      0.37997452
H       2.12398203      1.81306682     -0.57888475
H       1.50816641      1.53464906      1.05839898
H       1.07913368     -0.44991536     -1.27169029
H      -1.12447602     -1.39393699     -1.24485362
H      -3.32057470     -1.45426620     -0.08200469
H      -2.01765388      0.41901744      1.55406235
H       2.94010523     -0.32429403      1.06140727
