13
b3lypvtz=-242065.30707243
C      -2.02912126     -0.02995020      1.05670598
C      -1.11281453     -0.20562292      0.09375474
O      -1.40793666     -0.45241512     -1.21347714
N       0.24971446     -0.16045191      0.29573674
C       1.22370559     -0.33603588     -0.66857493
C       2.52871158     -0.28358208     -0.42201749
F       2.98044197     -0.04509023      0.84148212
H      -1.73431826      0.16302485      2.07599728
H      -3.08343358     -0.07794055      0.83227419
H      -2.36483834     -0.47518264     -1.30854482
H       0.55752005      0.01741923      1.23625384
H       0.87974580     -0.52526466     -1.67150920
H       3.31252317     -0.41560788     -1.14808131
