14
b3lypvtz=-224557.85140421
N       3.37070064      0.05697226     -0.07114202
N       2.06180693      0.06877426      0.21929136
N       1.43900685     -0.89952738     -0.26588241
C       0.05417729     -0.90412228     -0.00671962
C      -0.73948649      0.16017129      0.11606272
C      -2.21439815      0.07129787      0.34478629
O      -2.98903519      0.62276772     -0.72583788
H       3.65882359     -0.52705578     -0.84946078
H       3.81540734      0.95010519      0.04970425
H      -0.35824833     -1.90646354      0.00566367
H      -0.30454006      1.15208568      0.04142373
H      -2.47626945      0.56328881      1.29070520
H      -2.52412360     -0.97083595      0.42336222
H      -2.79372135      1.56264184     -0.79085675
