20
b3lypvtz=-182682.68217094
C       2.48279576     -0.00000001     -0.07620370
C       1.01019187     -0.00000002      0.33152830
C       0.27788804      1.25603726     -0.16249868
C      -1.20877089      1.21271241      0.18608483
N      -1.80877718     -0.00000004     -0.36545870
C      -1.20877087     -1.21271252      0.18608482
C       0.27788806     -1.25603732     -0.16249868
H       3.00065934     -0.88253292      0.30582424
H       2.58525827     -0.00000000     -1.16444804
H       3.00065932      0.88253293      0.30582424
H       0.96130873     -0.00000002      1.42794484
H       0.38189700      1.32977269     -1.24944201
H       0.73350618      2.15137960      0.26922566
H      -1.31942754      1.27133486      1.28377542
H      -1.72208011      2.07851967     -0.23643486
H      -2.80875648     -0.00000005     -0.21187789
H      -1.72208002     -2.07851986     -0.23643484
H      -1.31942752     -1.27133497      1.28377540
H       0.73350623     -2.15137963      0.26922566
H       0.38189703     -1.32977274     -1.24944201
