16
b3lypvtz=-204450.54061476
N       2.86374362      0.00813767     -0.15264886
C       1.71761717     -0.07767107      0.37426435
C       0.38460763     -0.08301235     -0.32489233
C      -0.42592908      1.22627112     -0.11106639
C      -1.84859926      0.73495260      0.24505256
C      -1.77625359     -0.77239780     -0.01619479
O      -0.41662117     -1.12616334      0.22215508
H       2.79466730      0.03582306     -1.17341090
H       1.65248397     -0.12974621      1.46391535
H       0.53970700     -0.25832666     -1.39868301
H      -0.40679861      1.83885108     -1.01103272
H      -0.00037116      1.82107414      0.69676192
H      -2.62162795      1.22087041     -0.34929634
H      -2.06654302      0.92478672      1.29538979
H      -2.39629946     -1.36986230      0.64975580
H      -2.05016339     -1.00701006     -1.05329152
