15
b3lypvtz=-216918.5198693
C      -0.31029506      1.81692001     -0.91118535
C      -0.23930893      0.66947425     -0.22117023
C      -1.51022970      0.05452656      0.32215038
O      -1.75920957     -1.27436776     -0.14195283
C       1.03942715      0.02106218      0.04371997
C       1.20075818     -1.15663636      0.65994083
O       2.38991736     -1.75144109      0.93180615
H      -1.25797996      2.30365194     -1.09836019
H       0.57549969      2.30605337     -1.29645548
H      -2.35469230      0.70932215      0.08790588
H      -1.44983455     -0.03232980      1.40896089
H      -1.73383595     -1.26290811     -1.10428167
H       1.92529835      0.55312719     -0.29552254
H       0.37273790     -1.76959606      0.98445534
H       3.11174738     -1.18685847      0.62998885
