15
b3lypvtz=-216928.08078563
C      -1.47910317     -1.18080302     -0.30064353
C      -0.52523052     -0.26642143      0.47008664
C      -0.63405094      1.21617433      0.03473111
O       0.71680646      1.74426614     -0.02790224
C       1.53528483      0.66807026     -0.00361005
C       0.94820727     -0.50878985      0.23294296
O       2.81534221      1.01792427     -0.21750172
H      -2.52162935     -0.90222123     -0.12740405
H      -1.36062708     -2.21939144      0.01290079
H      -1.28355592     -1.12871279     -1.37342877
H      -0.76335786     -0.35793853      1.53756345
H      -1.19886199      1.84279119      0.72121485
H      -1.06472551      1.29983687     -0.96648674
H       1.44738990     -1.45996809      0.31945290
H       3.36811166      0.23518334     -0.12496015
