15
b3lypvtz=-216924.87017105
O      -2.26479575     -0.25711386      0.44503938
C      -0.86013805     -0.05820135      0.55502962
C      -0.03906904     -1.17387939     -0.08799492
C       1.39330373     -0.73739781     -0.24410625
C       1.76625888      0.53210302     -0.09747441
O       0.92898207      1.57876292      0.14518009
C      -0.46122448      1.29094830     -0.04153585
H      -2.48050309     -0.41632849     -0.48028796
H      -0.65857392     -0.03148805      1.62739971
H      -0.47663702     -1.42945013     -1.06244191
H      -0.10576844     -2.07927941      0.51956126
H       2.15581783     -1.47626384     -0.44724580
H       2.79589477      0.85910028     -0.14945994
H      -1.01030313      2.10004782      0.43482491
H      -0.68324434      1.29833999     -1.11658792
