13
b3lypvtz=-237082.17852457
N       0.41834312     -1.62131092      0.26907072
C       0.87392209     -0.44454928      0.04083050
N       2.14266535     -0.05308402     -0.22615950
C      -0.10918407      0.72720148      0.07734423
O       0.32050086      1.85793954      0.02303844
C      -1.58906614      0.42886080      0.26825018
O      -2.07051840     -0.68742623     -0.43700656
H       1.14203021     -2.33803110      0.26839050
H       2.32619432      0.93780079     -0.22831599
H       2.91188141     -0.69222563     -0.13770816
H      -1.74262524      0.33498430      1.35568645
H      -2.13737090      1.31046847     -0.06154663
H      -1.47177663     -1.42065420     -0.21190218
