12
b3lypvtz=-223853.04059446
N       2.20473909     -1.35270687      0.00052283
C       1.99030249     -0.10651886     -0.00049707
C       0.63425546      0.55374431     -0.00074771
O       0.55095755      1.76831203     -0.00177655
N      -0.42965696     -0.35510147      0.00034190
C      -1.60822175      0.16742377     -0.00141191
N      -2.71663211     -0.57966397     -0.00004685
H       1.30270168     -1.83918083      0.00131207
H       2.82329531      0.59540740     -0.00149384
H      -1.76447007      1.24728239     -0.00392777
H      -3.62755146     -0.15925604     -0.00273822
H      -2.64007723     -1.58372587      0.00156311
