15
b3lypvtz=-214527.86231908
C      -0.02381619      1.28336189      1.04250710
C       0.13194014      0.20864224     -0.05452986
N      -0.11585376      0.69611103     -1.41594647
C       1.50576594     -0.32901372     -0.00128763
N       2.57761081     -0.73986314      0.07206131
C      -0.82956558     -0.97062480      0.19643315
O      -2.15482685     -0.45719467      0.11868192
H      -1.05166218      1.64176967      1.04534794
H       0.21178966      0.88379851      2.02984963
H       0.64549245      2.12039853      0.84477055
H      -1.09865639      0.93219666     -1.49225293
H       0.42338233      1.53377405     -1.59935962
H      -0.65326586     -1.72935332     -0.56869553
H      -0.62872712     -1.40003011      1.18246239
H      -2.76604541     -1.18845184     -0.00065495
