19
b3lypvtz=-171844.10288928
C      -2.66971650     -0.98312570      0.24326120
C      -1.67869912     -0.10584500      0.04045836
C      -1.94903375      1.37411010     -0.02189121
C      -0.30482235     -0.58136652     -0.12415789
C       0.77666264      0.17481844     -0.33570529
C       2.17225799     -0.34811348     -0.49011382
C       3.13467775      0.19627415      0.57497233
H      -2.47932788     -2.04803550      0.28815958
H      -3.69556467     -0.66308984      0.36919991
H      -1.38671851      1.91069886      0.74621775
H      -1.64794733      1.79014722     -0.98643418
H      -3.00765171      1.58355981      0.12288061
H      -0.17682202     -1.65933863     -0.06699137
H       0.67059834      1.25440113     -0.39363012
H       2.55391263     -0.06974343     -1.47907637
H       2.16119074     -1.44013044     -0.45766112
H       2.81795495     -0.10208841      1.57552997
H       3.17225330      1.28731116      0.55018902
H       4.14789150     -0.17544694      0.41367367
