19
b3lypvtz=-195137.61043952
C      -2.16056811     -0.99626103      0.18691433
C      -1.18920263      0.08476551     -0.29905417
C      -1.70772388      1.49395883      0.00786752
C       0.17722997     -0.12031595      0.31360343
O       0.94043496     -1.24047820     -0.16009331
C       1.43045689      0.08565991     -0.41782802
C       2.72061378      0.46844954      0.25157799
H      -1.77504311     -1.99187623     -0.03377086
H      -2.31566581     -0.92459727      1.26669525
H      -3.13410977     -0.89213456     -0.29543733
H      -1.07617111     -0.01929995     -1.38236233
H      -2.68806409      1.65290650     -0.44416907
H      -1.81357063      1.64682118      1.08496009
H      -1.03334756      2.26238084     -0.37424333
H       0.21227672     -0.00343327      1.39724335
H       1.34566474      0.37600352     -1.46355237
H       2.86908786      1.54993103      0.20927390
H       2.72191137      0.15660955      1.29606429
H       3.56808641     -0.00590894     -0.24732235
