20
b3lypvtz=-182668.62052449
C      -2.16849272      1.40674437     -0.29553580
C      -2.21409387      0.10084464      0.50144268
C      -1.55088251     -1.08586360     -0.20559039
C      -0.04837984     -1.07954460     -0.30516632
C       0.80368563     -0.28375727      0.33056115
C       2.29683761     -0.36229404      0.21541918
N       2.85707404      0.91466390     -0.26296817
H      -2.65139849      2.21823872      0.25182424
H      -2.69023866      1.29592330     -1.24892850
H      -1.14586255      1.71233345     -0.51664345
H      -3.25819340     -0.15882061      0.69432518
H      -1.75854795      0.24581030      1.48493156
H      -1.96147566     -1.17057449     -1.21862627
H      -1.84893423     -2.01512183      0.29510846
H       0.36434108     -1.83916346     -0.96575160
H       0.42909313      0.48899813      0.99703181
H       2.56501190     -1.13869079     -0.50385558
H       2.71225208     -0.67119970      1.18783194
H       2.63909659      1.65485360      0.39561716
H       3.86884083      0.85607795     -0.29627928
