19
b3lypvtz=-192741.22219667
C       3.24187608      0.21922982      0.11781920
N       1.96219147     -0.10065085     -0.48231419
C       1.01888032     -0.46685088      0.27235038
C      -0.33916611     -0.83698461     -0.23888027
C      -1.47502104      0.02270467      0.34284532
C      -1.37535915      1.48450531     -0.10711279
N      -2.75386153     -0.62044813      0.01090313
H       3.25539945      0.11429981      1.21152694
H       3.51456457      1.24410316     -0.14268064
H       4.01018087     -0.42944676     -0.30818248
H       1.15729540     -0.53808516      1.36384899
H      -0.33283960     -0.76918619     -1.32912646
H      -0.54844666     -1.87597362      0.03256624
H      -1.39310387     -0.00859840      1.43456969
H      -1.45225204      1.55563168     -1.19512261
H      -2.18258073      2.07673267      0.32853626
H      -0.42741156      1.93881554      0.18781657
H      -3.52362907     -0.08903185      0.40275367
H      -2.89075581     -0.61711920     -0.99533896
