15
b3lypvtz=-214509.6025464
C      -3.12405961      0.17459416     -0.12892547
N      -2.01142437     -0.08829429      0.42900339
N      -0.86953839     -0.01521599     -0.30551945
C       0.25022291     -0.79102501      0.19094281
C       1.60971104     -0.11133239      0.01972814
C       1.66167442      1.39487640      0.10757163
O       2.59929186     -0.78762699     -0.14027062
H      -3.22160024      0.42109763     -1.18934856
H      -4.01398887      0.16103510      0.48492010
H      -1.00351913     -0.05303364     -1.31276332
H       0.31980877     -1.79236503     -0.24471881
H       0.09001368     -0.91492952      1.26476684
H       2.69825692      1.71691625      0.16581566
H       1.18917979      1.83766618     -0.77157094
H       1.09637622      1.75275213      0.96986458
