14
b3lypvtz=-203673.54492411
O       3.51916642      0.14454334      0.59484538
C       2.37234200     -0.20824232      0.42673135
C       1.24950955      0.70577612      0.22146487
C       0.00490565      0.27477118      0.02063483
C      -0.68961157     -1.07283603     -0.02845801
N      -1.99821196     -0.36303598      0.04307565
C      -1.32961858      0.94976566     -0.18369345
H       2.11205432     -1.28665644      0.42063144
H       1.47699400      1.76605394      0.23790078
H      -0.50769156     -1.60950983     -0.96644399
H      -0.50808546     -1.75701309      0.80250814
H      -2.65500144     -0.62693549     -0.67936252
H      -1.44383232      1.35883793     -1.19443331
H      -1.60281903      1.72448102      0.53619884
