13
b3lypvtz=-237032.24224308
C      -1.31982994      0.02412355     -1.52170377
C      -0.23361920     -0.39382537     -0.58231951
N      -0.33052722     -0.11084857      0.64875715
C       0.66542035     -0.40976192      1.57338456
N       1.89060871     -0.05261862      1.57977484
O       2.26239700      0.64398906      0.41395943
O      -2.36031077      0.72167238     -0.89425778
H      -1.70449116     -0.87633720     -2.02200608
H      -0.86142449      0.63751181     -2.31109596
H       0.60869390     -0.94434427     -1.00475765
H       0.33924584     -0.92864358      2.46692565
H       3.16427697      0.90892874      0.61853746
H      -2.12044001      0.78015400      0.04343694
