15
b3lypvtz=-191188.23014932
C      -1.24522491      0.77855317      0.57409841
C      -1.40289082     -0.25543784     -0.50874029
C      -0.27807193      0.76402436     -0.57385747
N       0.70518478     -0.30143640     -0.41909511
C      -0.34379189     -1.35214322     -0.36720780
C       1.83368722     -0.23644826      0.36503236
N       2.46077957      0.79380040      0.77020855
H      -0.90714894      0.49464311      1.56355614
H      -1.97737890      1.57520808      0.55420370
H      -2.28027456     -0.31969632     -1.13220327
H      -0.12189762      1.58826919     -1.25511777
H      -0.36913836     -1.93535424      0.55659014
H      -0.29022457     -2.02379585     -1.22472501
H       2.23280469     -1.22306229      0.60632746
H       1.98358626      1.65287609      0.49092996
