18
b3lypvtz=-205214.76218917
C      -2.74229001     -0.10228413     -0.40670802
C      -1.33635313     -0.68265702     -0.26479462
C      -0.43190918      0.15890278      0.64069125
O      -0.26488832      1.48511789      0.14501731
C       0.94194445     -0.49320827      0.92960131
C       1.77962857     -0.64337872     -0.31067284
N       2.66849076      0.15737312     -0.73263040
H      -3.35273642     -0.71006682     -1.07574116
H      -2.70569727      0.91156001     -0.80406030
H      -3.24820442     -0.06125583      0.56050559
H      -0.87361525     -0.77245241     -1.25288817
H      -1.39207010     -1.69684691      0.14219841
H      -0.93299460      0.29289316      1.60247054
H       0.20871609      1.44170836     -0.69438689
H       1.46682504      0.13979978      1.64783796
H       0.77857721     -1.47048909      1.39173443
H       1.57057554     -1.51372036     -0.93723056
H       2.79323205      0.93288846     -0.07615983
