16
b3lypvtz=-202025.17980142
C       1.37554887      0.84737714      1.24778979
C       1.28404532      0.91445123     -0.25001875
C       2.19562557      1.52126974     -1.01771804
N       0.19768289      0.31805907     -0.92135004
N      -0.62794633     -0.24985203     -0.16544786
N      -1.68351249     -0.74934603     -0.81061766
C      -2.45850635     -1.76934697     -0.13768124
H       0.50353299      1.30999507      1.71349508
H       2.27308210      1.35566790      1.59491121
H       1.39833013     -0.18780438      1.59304667
H       2.07638852      1.54061188     -2.09168989
H       3.06258041      2.00135690     -0.58791651
H      -1.58828708     -0.78108742     -1.82206624
H      -2.55148054     -1.49708799      0.91144909
H      -3.45412628     -1.81051311     -0.57775470
H      -2.00295774     -2.76375100     -0.20068826
