15
b3lypvtz=-193571.8408309
C      -1.27055251      0.56305629      0.11090987
C       0.17809615      1.11158947     -0.00673704
C       0.95811275      0.37633472      1.11767295
C       0.73540262     -0.89156290      0.30407266
C      -0.69425777     -0.77164337     -0.34213466
C       0.50326579     -0.11154131     -0.95330130
O       1.07489452     -0.06728013     -2.20869405
H      -1.92829158      0.98957132     -0.64644695
H      -1.74468555      0.63004627      1.09335813
H       0.36706547      2.15587332     -0.23184197
H       0.54409518      0.43907510      2.12715237
H       2.01069383      0.65894367      1.13236071
H       1.18212918     -1.86823168      0.42651474
H      -1.21197220     -1.66730312     -0.65549323
H       1.15560411     -0.96392761     -2.55069225
