15
b3lypvtz=-214480.88564837
C      -1.77336196      1.01111565     -0.34382581
C      -1.32189684     -0.29982732      0.31420441
C       0.13783769     -0.59061238      0.13012665
C       0.64784402     -1.59968432     -0.56622014
O       0.87352386      0.36977436      0.81757755
N       2.25572759      0.30418733      0.60236608
N       2.79542021      1.15901917      1.28865399
H      -2.83650163      1.17907594     -0.16734021
H      -1.60878281      0.98192495     -1.42188602
H      -1.22507012      1.86130357      0.06034880
H      -1.53442479     -0.25745013      1.38645155
H      -1.88631456     -1.13955728     -0.09115177
H      -0.02736220     -2.28459961     -1.05619692
H       1.70744785     -1.76329598     -0.66922682
H       3.79571367      1.06872605      1.08411866
