14
b3lypvtz=-203677.92282553
C      -2.40677569      0.13220981      0.04328170
C      -1.08236887      0.05293798      0.04296296
C       0.00813855      0.21143770     -1.00386744
C       0.95181196     -0.45386844      0.05731947
N      -0.13702426     -0.27447969      1.03270856
C       2.21367102      0.30991400      0.37177203
O       3.31366721     -0.03408130      0.02580868
H      -2.93561637      0.41650950     -0.85418780
H      -2.98921596     -0.07699406      0.93026942
H       0.26185049      1.24679125     -1.23157684
H      -0.11600285     -0.34532505     -1.92860832
H       1.19832800     -1.48907699     -0.18762999
H      -0.32472422     -0.94602642      1.76335826
H       2.04426096      1.25005172      0.93838932
