12
b3lypvtz=-252155.8348203
C      -1.74044437     -0.09745284     -0.50232039
C      -0.40248699      0.13201472      0.13371996
N      -0.11902749      0.75154697      1.19405726
O       0.56419040     -0.46500533     -0.64326669
C       1.89892745     -0.43772204     -0.33416368
N       2.54689353      0.05771017      0.59904624
F       2.49283283     -1.11401099     -1.31484542
H      -1.93132865     -1.16747388     -0.59217161
H      -1.75025861      0.31969314     -1.50996290
H      -2.53026546      0.36226958      0.08666634
H      -0.95323721      1.12499200      1.63477192
H       1.92430457      0.53363851      1.24826895
