15
b3lypvtz=-214520.27943812
C      -1.19253667     -0.84053290      0.60653445
C      -0.76471905      0.46452815     -0.11957950
C       0.43800752     -0.30043413     -0.77404284
C       0.20942900     -1.38655140      0.30102346
O       0.91739301     -2.20527888      0.81063489
N       1.68986129      0.39534482     -0.92451924
N      -0.24325309      1.43628818      0.83007023
H      -1.45262153     -0.75807129      1.66029565
H      -1.96997533     -1.39479330      0.07733971
H      -1.49285829      0.86302162     -0.83238002
H       0.11846128     -0.69940630     -1.74020908
H       2.31244944     -0.09073038     -1.55566858
H       2.15983464      0.47707339     -0.03107179
H       0.26046285      2.16476079      0.33702236
H      -0.98993507      1.87478164      1.35455031
