12
b3lypvtz=-280457.73955147
O       2.06479254     -1.03226102     -0.23915459
C       1.69589355      0.27062819     -0.39151980
N       0.57402493      0.73503454     -0.07831444
C      -0.44305136     -0.14338240      0.47055496
C      -1.80867096      0.38933897      0.09635665
F      -2.04224827      0.20379932     -1.23769937
F      -2.77223806     -0.30986179      0.77421902
H       2.95226303     -1.16473259     -0.58812073
H       2.45847085      0.92322155     -0.81218861
H      -0.37003152     -1.17939871      0.12965660
H      -0.37834441     -0.14351517      1.56241291
H      -1.93096033      1.45122910      0.31379739
