16
b3lypvtz=-209435.45776542
C      -0.12211262      2.38717710      0.17402876
C      -0.08507656      1.20516831     -0.02717485
C      -0.03267874     -0.23976823     -0.24376844
C       1.23980750     -0.87373813      0.36254252
C       2.53648925     -0.36129670     -0.25885569
C      -1.27907275     -0.92704774      0.31615617
F      -2.41976119     -0.48985985     -0.34606170
H      -0.16421864      3.43411910      0.34248227
H      -0.02630885     -0.42339672     -1.32393055
H       1.17281424     -1.95666933      0.22770018
H       1.24686314     -0.68893449      1.43960700
H       2.64143818      0.71492291     -0.12145490
H       3.40056817     -0.84560394      0.19759472
H       2.56735616     -0.56693386     -1.33090057
H      -1.20682108     -2.00698066      0.17119413
H      -1.40348719     -0.70860478      1.37844494
