16
b3lypvtz=-181136.29685708
C       2.02921339     -0.00802578     -0.99303603
C       0.67404223     -0.17017180     -0.38732788
C       0.12759546     -1.27518153      0.12537776
C      -1.26769574     -1.04926323      0.66507704
C      -1.47775575      0.44342536      0.45430886
N      -0.53619890      1.29426745      1.21045363
C      -0.27059988      0.97860190     -0.22257084
H       2.56281580     -0.95702553     -1.04259524
H       2.63408530      0.69434272     -0.41204189
H       1.96361970      0.39700824     -2.00732169
H       0.62817528     -2.23260863      0.19360711
H      -1.35079595     -1.32244609      1.72075019
H      -2.01504940     -1.63577251      0.12086948
H      -2.46695314      0.82855561      0.24601134
H      -0.92798925      2.23037965      1.27443426
H      -0.30640913      1.78371419     -0.94589610
