14
b3lypvtz=-201284.75802355
C       0.75750303      2.09400906      0.12009158
N       0.22773320      1.13429232     -0.50401525
C      -0.21123312     -0.01592001      0.28540602
C      -1.65358938     -0.21223033      0.09625448
N      -2.78196084     -0.39361063     -0.03163350
C       0.55961804     -1.27313573     -0.16950811
N       1.97571236     -1.10773490      0.13458863
H       0.87789750      2.11880310      1.20833057
H       1.11677611      2.95246077     -0.44221201
H      -0.02378987      0.12766423      1.35779861
H       0.33471725     -1.44292818     -1.22793138
H       0.17540584     -2.12380751      0.39359865
H       2.45131087     -2.00023409      0.11173322
H       2.42135102     -0.51326910     -0.55336350
