13
b3lypvtz=-192841.41618884
C      -3.64920591      0.02759319      0.00001583
C      -2.20056116      0.37590512      0.00000809
C      -1.20067008     -0.51697779     -0.00003176
C       0.16684312     -0.16306005     -0.00003847
C       1.35133599      0.08524679     -0.00004581
C       2.73970529      0.44648799     -0.00005559
O       3.65638855     -0.34567955     -0.00009458
H      -4.14857604      0.45261106      0.87535739
H      -3.80923579     -1.05013998     -0.00001584
H      -4.14859850      0.45266595     -0.87528625
H      -1.94955004      1.43157336      0.00003683
H      -1.42746231     -1.57891093     -0.00006113
H       2.92656189      1.53616383     -0.00003070
