12
b3lypvtz=-179603.26660772
C      -1.35316536      0.88682274     -0.43164903
C      -1.59829025     -0.38083062      0.31546558
C      -0.42230818     -0.29794378     -0.64726721
C       0.90965213     -0.25926490     -0.14226626
C       2.03789900     -0.22653298      0.28737986
C       3.31236988     -0.18976650      0.77386748
N       4.39263405     -0.15792665      1.18785788
H      -0.95323599      1.73037700      0.11124859
H      -2.00580347      1.14073024     -1.25442148
H      -1.36549643     -0.40518806      1.36980246
H      -2.42214782     -1.01178640      0.01452893
H      -0.53210754     -0.82869010     -1.58454680
