18
b3lypvtz=-181895.10597403
C      -2.39041286     -0.65829395      0.04869219
C      -1.08056331     -0.80431368     -0.10926913
C      -0.04706506      0.28335371     -0.02360492
N      -0.67200996      1.58904662      0.07050130
C       1.00417623     -0.01142248      1.09700309
C       1.93504980     -0.65573959      0.04220571
C       1.11053890      0.03950698     -1.06665820
H      -3.05950847     -1.50464078     -0.03367718
H      -2.83009751      0.30199875      0.28163128
H      -0.68425948     -1.79335246     -0.31981204
H      -1.24656617      1.77341423     -0.74481480
H       0.03099303      2.31636050      0.11628320
H       1.41306742      0.92333474      1.48376680
H       0.67151930     -0.61920225      1.93676899
H       2.99394785     -0.40996607      0.10111662
H       1.83863405     -1.74054773      0.01277327
H       1.55198153      0.99092803     -1.36622587
H       0.86757875     -0.53288555     -1.96211530
