15
b3lypvtz=-191193.80740332
C      -0.40795526      1.15613799     -0.67041209
C       0.34278309      0.75450776      0.64646758
C       1.47181226     -0.11472810      0.06999842
N       0.70455268     -0.88171499     -0.97988435
C      -0.67174845     -0.37012508     -0.75428683
C      -0.76879204     -0.28528147      0.77523777
N      -1.45494658     -0.69764059      1.74495217
H      -1.30613881      1.74072730     -0.48709758
H       0.19342889      1.57719114     -1.47483779
H       0.57752734      1.45827441      1.43790560
H       1.91308556     -0.77048326      0.82200976
H       2.26746460      0.47328364     -0.38983298
H       0.74186287     -1.87423280     -0.77788865
H      -1.42538050     -0.81597489     -1.39678546
H      -2.17755566     -1.34994105      1.43445442
