14
b3lypvtz=-226989.32889752
C      -3.13881722     -0.28891032      0.04687944
N      -1.83519601      0.32521582      0.15466672
C      -0.81674135     -0.40641280     -0.02268267
C       0.54851371      0.08789812      0.05964240
O       0.71957845      1.40772128      0.33902160
C       1.58073809     -0.74797456     -0.13578649
O       2.86191832     -0.25969231     -0.05255387
H      -3.68237840     -0.14992529      0.98455269
H      -3.10715300     -1.36320530     -0.18666166
H      -3.71604831      0.22151069     -0.72788066
H      -0.89770867     -1.47864369     -0.25369005
H       1.66745400      1.58866934      0.36170607
H       1.44166223     -1.79547351     -0.35727153
H       3.49727315     -0.96162947     -0.20971998
