16
b3lypvtz=-204443.86739663
C      -2.71642186     -0.91615873     -0.32606216
C      -1.81822121     -0.22620389      0.36596094
C      -0.50707642      0.25317084     -0.18638659
O      -0.40777323      1.68030653     -0.08519565
C       0.68779368     -0.31493829      0.59104664
C       2.01706585      0.09577857      0.01223001
N       2.97468850     -0.66147851     -0.32647553
H      -3.65216064     -1.23613900      0.11356446
H      -2.54428329     -1.19152621     -1.36065424
H      -2.01157364      0.04573438      1.40001903
H      -0.42695284     -0.05412558     -1.23629988
H      -1.14950214      2.06871065     -0.56018532
H       0.61638252     -1.40422556      0.62210238
H       0.61792255      0.05695255      1.61893485
H       2.15379572      1.16904319     -0.12376980
H       2.74104246     -1.64362693     -0.15851814
