14
b3lypvtz=-229601.72784529
N      -1.09441772      2.15018025     -0.12845846
C      -0.91671489      1.03024507      0.06089386
C      -0.76093910     -0.40585589      0.33388482
N      -1.98253086     -1.08733797     -0.11650343
C       0.45164377     -1.02021286     -0.38967476
C       1.80389595     -0.62288145      0.16413620
F       2.05476487      0.72832315     -0.05372708
H      -0.59101935     -0.49144662      1.41739799
H      -1.98202448     -2.04410101      0.21761830
H      -2.80667093     -0.63474448      0.26059503
H       0.36681580     -2.10668869     -0.29339708
H       0.39311433     -0.78879979     -1.45319603
H       1.86404738     -0.79757075      1.24198656
H       2.59639624     -1.18981396     -0.32793091
