16
b3lypvtz=-232745.76717047
C      -1.60789414      1.46530662     -0.23262800
C      -1.19374097      0.20062005      0.50657543
C      -1.43571102     -1.13098528     -0.23272629
O      -0.01717502     -1.39139879     -0.33404083
C       0.29739737     -0.23494562      0.47713625
C       1.31899807      0.67926096     -0.14873731
F       2.59414211      0.13313725     -0.01034805
H      -1.24670226      2.36509453      0.26866988
H      -1.23780135      1.47669010     -1.25910345
H      -2.69668187      1.53341679     -0.27705270
H      -1.60051675      0.21715365      1.51710246
H      -1.94778175     -1.90362878      0.34684831
H      -1.90394012     -1.05041817     -1.21719259
H       0.67572916     -0.54641452      1.45668632
H       1.13270197      0.81568886     -1.21448568
H       1.31825157      1.65023533      0.35453725
