12
b3lypvtz=-247066.30575978
C      -2.46838821     -0.06026890     -0.37412563
N      -1.02427312     -0.14397679     -0.28173226
C      -0.45734318      0.51694685      0.61020412
O       0.89306537      0.56249402      0.84979704
N       1.64778737     -0.23666204     -0.03133012
N       2.81503014     -0.09281579      0.30486331
O       3.60057563     -0.86365774     -0.53684602
H      -2.89322678     -1.05964095     -0.26624211
H      -2.92581201      0.59777558      0.37661092
H      -2.74425003      0.29950139     -1.36675025
H      -0.93034077      1.16851430      1.34930571
H       4.48717559     -0.68820992     -0.19983460
