18
b3lypvtz=-205205.26087998
C      -3.16774851      0.18535846      0.38200998
C      -2.30635150     -0.67286080     -0.16089595
O      -0.98476443     -0.50475339     -0.39557295
C      -0.40003558      0.74670537     -0.02704996
C       1.07661180      0.71701837     -0.37264198
C       1.88303714     -0.29706937      0.43370958
N       3.30469202     -0.21126416      0.07585722
H      -4.19806690     -0.11588828      0.49537781
H      -2.89705384      1.17415666      0.71881324
H      -2.61621760     -1.65789384     -0.48761149
H      -0.90821384      1.55238752     -0.56599933
H      -0.55018770      0.91269414      1.04576413
H       1.18313241      0.50766330     -1.44132973
H       1.49286232      1.71286065     -0.20299946
H       1.79415010     -0.05782898      1.49710693
H       1.45166862     -1.29525691      0.29424250
H       3.85118805     -0.83691829      0.65600970
H       3.44076942     -0.52082544     -0.88052223
