14
b3lypvtz=-226999.06166359
C       0.55959667      0.20837881     -0.00630093
C       1.77231932     -0.36293749     -0.04173351
N       2.99368878      0.28536749      0.17323041
C      -0.67196130     -0.47095888     -0.34947367
C      -1.88695350      0.09254469     -0.31059901
O      -3.06750855     -0.51654738     -0.63423259
O      -2.10262038      1.37307230      0.07104507
H       0.47810973      1.25093384      0.28451428
H       1.87804919     -1.40431347     -0.32757464
H       2.90940285      1.18559505      0.62347773
H       3.68810156     -0.28127291      0.63705258
H      -0.61789599     -1.50797244     -0.66042424
H      -2.89040367     -1.41370082     -0.93480673
H      -3.04192469      1.56181121     -0.03415021
