16
b3lypvtz=-204443.9344021
C      -2.28682519     -0.96406763      0.12685614
N      -1.06351405     -1.06411510     -0.18463468
C      -0.16146226     -0.02249913      0.09128436
C      -0.46060518      1.24276620     -0.23188566
O       0.41488659      2.27733919     -0.01396156
C       1.17487900     -0.45252917      0.63469246
C       2.00453046     -1.24884784     -0.38207737
H      -2.97150655     -1.76198750     -0.14952190
H      -2.69714965     -0.10862737      0.67437744
H      -1.39900002      1.49556079     -0.71129227
H       0.16147083      3.02857929     -0.55628110
H       1.00893124     -1.06859213      1.52352227
H       1.72452184      0.43131082      0.95626960
H       2.94359413     -1.58146950      0.06365712
H       2.24171434     -0.63590001     -1.25301605
H       1.45723646     -2.12597192     -0.72531380
