16
b3lypvtz=-204447.88581043
C       2.74404594     -0.05894345     -0.00002522
C       1.72883241     -0.92533228      0.00001876
N       0.35137600     -0.72756656      0.00002414
C      -0.41003123      0.42722140      0.00001548
O       0.36064357      1.55211169      0.00002046
C      -1.75453554      0.45895364      0.00000377
C      -2.68430040     -0.71732601     -0.00001818
H       3.74783036     -0.45684857     -0.00002474
H       2.61774139      1.00925770     -0.00006007
H       1.95391138     -1.98555130      0.00005236
H      -0.19342276     -1.56925969      0.00008973
H      -0.22676340      2.31438339     -0.00001494
H      -2.21357437      1.44105396      0.00001945
H      -3.33671649     -0.71823993     -0.87848527
H      -2.16585879     -1.67817683     -0.00013228
H      -3.33660506     -0.71837819      0.87853256
