17
b3lypvtz=-171077.80880168
C      -2.80639143     -0.00139875     -0.12528960
C      -1.52152144     -0.03017540     -0.45641569
C      -0.37184145      0.00232518      0.51583242
C       0.51813191      1.20871262      0.28545783
C       1.71521163      0.88290809     -0.18833398
C       1.88388900     -0.60498317     -0.35342010
C       0.62684815     -1.18538840      0.34140231
H      -3.58751876     -0.02374778     -0.87386052
H      -3.12358438      0.04559278      0.91032974
H      -1.24456921     -0.07268441     -1.50707248
H      -0.78888152      0.01008965      1.52675323
H       0.16592870      2.21774174      0.45438182
H       2.48681866      1.59248385     -0.45803110
H       1.93327394     -0.87407867     -1.41395416
H       2.80946564     -0.97318113      0.09552594
H       0.89388851     -1.57057121      1.32573263
H       0.18303705     -2.01009399     -0.21514628
