14
b3lypvtz=-224610.76558211
N      -1.83816913      0.96098542      0.50586714
C      -1.94158920     -0.30216331     -0.12381825
C      -0.93128550     -1.16486093     -0.29546987
N       0.38506320     -1.05809321      0.16013840
C       1.10973863     -0.02608861     -0.04566643
N       0.81130960      1.12347059     -0.71834061
O       2.39751012     -0.02948427      0.38916039
H      -2.73424143      1.33201619      0.78420339
H      -1.21948722      0.94480964      1.30826739
H      -2.91692101     -0.54458004     -0.52279665
H      -1.16390362     -2.11149814     -0.76843666
H       1.49757608      1.85643642     -0.64866692
H      -0.15631381      1.41980755     -0.69235636
H       2.54008230     -0.91160532      0.75744604
