19
b3lypvtz=-192724.23966305
C       3.24630065     -0.28754286     -0.20447000
N       2.26229365      0.13973543      0.45669767
C       1.03386319      0.44668090     -0.25463987
C      -0.13146283     -0.33966765      0.35359405
N      -1.40277863     -0.05539848     -0.30372120
C      -1.94993924      1.24383270      0.05799958
C      -2.37805473     -1.11015507     -0.07417708
H       3.22570164     -0.43559727     -1.29216856
H       4.17507506     -0.52483887      0.31061629
H       1.09731715      0.23093265     -1.32981791
H       0.85592197      1.51814862     -0.13663624
H       0.08096061     -1.40343155      0.23109008
H      -0.16772857     -0.14595908      1.43825687
H      -2.86072874      1.42868960     -0.51279734
H      -1.24578064      2.04005362     -0.17938989
H      -2.19806841      1.31724520      1.13147211
H      -3.28808849     -0.89702126     -0.63692068
H      -2.65632250     -1.21979402      0.98868346
H      -1.98248714     -2.06535063     -0.42071632
