13
b3lypvtz=-234661.63586703
N      -1.66212302      1.29231265      1.11558599
C      -1.69628101      0.12792014      0.62525590
O      -2.85088216     -0.58346686      0.44080631
N      -0.56120609     -0.55436376      0.22595316
C       0.72143054     -0.03096927      0.38594446
N       1.68165770     -0.51492415     -0.28405352
N       2.96442289     -0.05827842      0.00068769
H      -2.58280301      1.56911671      1.44075543
H      -2.66316644     -1.52954344      0.42107047
H      -0.64995429     -1.24703627     -0.50187449
H       0.78895440      0.77077922      1.11757753
H       3.52455644     -0.14924270     -0.83455391
H       2.98529405      0.90769614      0.32074500
