17
b3lypvtz=-217677.40529141
C      -1.90180683      1.37479200     -0.09267073
C      -1.55122766      0.11585704     -0.31619142
C      -0.55524339     -0.65345187      0.49858736
C       0.75778404     -0.90027874     -0.26455753
C       1.58731960      0.34607216     -0.51686857
O       1.99567147      0.87341566      0.74762931
O      -1.17945445     -1.90457678      0.82019043
H      -2.61183483      1.88772062     -0.72817812
H      -1.49058175      1.93771375      0.73698014
H      -1.98516982     -0.43605698     -1.14515940
H      -0.32973727     -0.09643979      1.41219514
H       1.36491123     -1.60263077      0.31590274
H       0.53024083     -1.38348874     -1.21834787
H       2.46086810      0.08371870     -1.12462228
H       0.99867430      1.08402258     -1.07192393
H       2.47095318      1.69559778      0.60095788
H      -0.56136673     -2.42198657      1.34607683
