15
b3lypvtz=-216906.34638004
C       3.49826410     -0.30404481     -0.22621642
C       2.39517222      0.08407816      0.04194760
C       1.04535216      0.53519365      0.35828078
C      -0.03417175     -0.48145181     -0.04921288
C      -1.44100518     -0.02577433      0.30525753
O      -1.69325013      1.16612671     -0.41154282
O      -2.41247255     -1.01031263      0.02939603
H       4.47667737     -0.64033985     -0.46160145
H       0.97705328      0.72911009      1.43353028
H       0.84990852      1.48658387     -0.13980059
H       0.01265882     -0.65005355     -1.12861903
H       0.14736767     -1.43756232      0.44182475
H      -1.53254692      0.14647376      1.38305625
H      -2.57041877      1.48010372     -0.16691954
H      -2.34763284     -1.23774266     -0.90626949
