13
b3lypvtz=-213790.97843962
C       2.40842598     -0.90541142     -0.14643012
C       1.28713723      0.10935740     -0.09418924
O       1.38153773      1.21337892     -0.59425892
N       0.15177265     -0.30380232      0.55751751
C      -1.02368515      0.53908930      0.62855592
C      -2.18506232     -0.06025950     -0.03821467
N      -3.09620934     -0.55207427     -0.53875911
H       2.54642781     -1.21381128     -1.18293727
H       2.22815450     -1.78945734      0.46398529
H       3.32878071     -0.42351401      0.17825250
H       0.10204018     -1.23699463      0.92751950
H      -1.29432113      0.76125404      1.66361422
H      -0.76350184      1.47854410      0.13880640
