16
b3lypvtz=-204414.40887026
C       0.79741212     -0.51644848      1.05279826
C      -0.17317621     -0.00969766     -0.03171534
C       1.08604649      0.41834608     -0.81021613
N       1.86428779      0.31558969      0.44717761
C      -1.31660828     -0.83786764     -0.62465209
O      -2.29538770      0.16622398     -0.27235069
C      -1.27253543      1.00948839      0.30961698
H       0.56023963     -0.27207424      2.09074054
H       0.96472306     -1.59805877      0.97254931
H       1.35918585     -0.31995583     -1.57484430
H       1.08019586      1.41154935     -1.26499534
H       2.77132925     -0.12573378      0.36632267
H      -1.51348477     -1.79269521     -0.12706986
H      -1.26889911     -1.00003852     -1.70606958
H      -1.19917152      1.97244804     -0.20358114
H      -1.44415702      1.17892459      1.37628910
