16
b3lypvtz=-181102.06196076
C      -0.77940459      1.76711768      0.31653402
C       0.09516897      0.77511873     -0.41142415
C       0.73984523     -0.37273907      0.31005551
C       2.07899785     -0.82178500      0.04047744
C       3.20656238     -1.18045782     -0.16162491
N      -0.29943527     -0.59678672     -0.70323720
C      -1.58113323     -1.11078004     -0.24214046
H      -1.55129644      2.16291405     -0.34740731
H      -1.26988278      1.33915009      1.18929306
H      -0.17468555      2.60963304      0.65644108
H       0.67392440      1.20987773     -1.21992824
H       0.42933922     -0.48724637      1.34660764
H       4.19943374     -1.50368927     -0.35053205
H      -1.87448890     -0.78162597      0.76228098
H      -1.53392568     -2.20005415     -0.24042898
H      -2.35911934     -0.80884690     -0.94486643
