15
b3lypvtz=-214515.45193243
N       1.39442339      1.83153075     -0.08964829
C       0.27582015      1.29149945      0.18986652
C      -0.11998536     -0.12692112      0.24829927
C       0.71056254     -1.16359925      0.06864555
O       2.03682557     -1.02790214     -0.21477776
C      -1.58401087     -0.41117484      0.52278007
N      -2.51789386     -0.05518436     -0.55236171
H       2.09584349      1.12782366     -0.31306211
H      -0.53775158      1.97938277      0.44148536
H       0.35008429     -2.18412406      0.14619265
H       2.45050503     -1.89287644     -0.27884955
H      -1.90218279      0.12889711      1.41801058
H      -1.71353972     -1.47239372      0.74618512
H      -2.55441755      0.94956727     -0.67816645
H      -2.19973873     -0.44426308     -1.43291824
