12
b3lypvtz=-249543.24734359
N       0.19992270      1.74752439     -0.42171164
C       0.00411301      0.39444111     -0.15143979
C       0.86719017     -0.38593201      0.50444154
O       2.11192652      0.15351310      0.80239156
O      -1.22949405      0.00300376     -0.66486107
C      -1.85047980     -1.15491676     -0.36802550
O      -1.46897997     -2.02066131      0.36438675
H       1.14593848      2.02864326     -0.20757941
H      -0.05162774      2.00154915     -1.36772217
H       0.66074720     -1.40197974      0.78599034
H       2.40468043     -0.19022834      1.65064298
H      -2.79373695     -1.17495662     -0.92651362
