17
b3lypvtz=-191988.04224759
C       3.42670286      0.24246041     -0.05368696
C       2.12844533     -0.48709230      0.09788918
C       0.91585283      0.06290352     -0.05889460
C      -0.34851034     -0.62514093      0.04648816
C      -1.56131306     -0.02287749      0.00993360
N      -1.73618204      1.35644333      0.00924235
N      -2.76297946     -0.72713091     -0.13290305
H       4.04491327     -0.19209606     -0.84627284
H       4.02538998      0.19840525      0.86217088
H       3.26597061      1.29411866     -0.29736540
H       2.19475881     -1.54326057      0.34786039
H       0.87095154      1.12011785     -0.31206064
H      -0.33239734     -1.70343452      0.15225010
H      -1.16064077      1.88909330      0.63770268
H      -2.68279239      1.68467014     -0.07351279
H      -2.63289129     -1.72491887     -0.20318813
H      -3.46081955     -0.50036480      0.56460907
