13
b3lypvtz=-213746.50943482
N       1.82741382     -0.54950834     -0.24828094
C       0.66578040      0.32735337     -0.37152820
C       0.55158276      1.31978851      0.71825135
N       0.51076776      2.09877311      1.56440519
C      -0.57872942     -0.53481619     -0.49725195
C      -1.87127104     -0.20315110      0.10084259
O      -1.01251652     -1.19036749      0.69122510
H       1.76080687     -1.09100013      0.60643086
H       2.68541936     -0.01350504     -0.20571469
H       0.76734492      0.89216650     -1.30325084
H      -0.54771336     -1.17100046     -1.37678185
H      -1.98366883      0.70911073      0.67535092
H      -2.77511673     -0.59374346     -0.35379753
