12
b3lypvtz=-202902.69423921
C       2.47807370      0.64903198     -0.71656832
C       1.60184307     -0.10965146     -0.39975493
C       0.55489408     -1.01789875     -0.02127305
O       0.94751081     -2.30240703      0.19231115
N      -0.67540784     -0.74263750      0.12931135
C      -1.15962259      0.54299852     -0.06835425
C      -2.45355876      0.82375346      0.08951918
H       3.24825591      1.32490780     -0.99712973
H       1.89751006     -2.37334507      0.04487701
H      -0.45959015      1.32593922     -0.35703805
H      -2.82449680      1.82651855     -0.06559819
H      -3.15551149      0.05269028      0.37559782
