14
b3lypvtz=-201271.38435339
C       2.90392836     -0.29168367     -0.08893641
C       1.65872172     -0.74052364      0.07323296
C       0.44694820      0.07421496      0.03633779
N       0.57014199      1.43676883     -0.02873003
C      -0.77073016     -0.54686196      0.01174510
N      -1.91569351      0.21781375      0.01759744
N      -2.99218578     -0.42844747     -0.05658863
H       3.12507473      0.74614349     -0.30181661
H       3.74889642     -0.96379655     -0.03819886
H       1.49046842     -1.79640544      0.24588408
H      -0.29860316      1.94015802      0.07030200
H       1.36148246      1.84941958      0.43550854
H      -0.85405787     -1.62741817     -0.02305162
H      -3.74950782      0.26449326     -0.02220075
