16
b3lypvtz=-204415.55504141
C      -1.06202207      0.78108748      0.90143963
C      -0.53624619     -0.14606077     -0.17164525
N      -1.47889873     -1.03102764     -0.82129151
C       0.83231091     -0.80811481     -0.10145877
C       1.87308320      0.16049284      0.43403408
O       1.47187907      1.18452113     -0.52372724
C       0.54922710      0.26891151     -1.12438340
H      -1.92322664      1.33748790      0.52251053
H      -1.38832321      0.21645016      1.77891088
H      -0.31531105      1.50910756      1.21498030
H      -2.24989000     -0.50452459     -1.21606854
H      -1.87158287     -1.69107693     -0.15941756
H       0.95484297     -1.87142050     -0.23605051
H       2.89883813     -0.15485822      0.23520945
H       1.78388309      0.50079251      1.46850722
H       0.46183628      0.24833236     -2.20164929
