16
b3lypvtz=-181110.6253943
C      -2.61809336     -0.62899066     -0.01247178
C      -1.49090276     -0.21654392     -0.02391122
C      -0.11162306      0.25235213     -0.00941509
N      -0.10023469      1.71658735     -0.07595070
C       0.85052682     -0.35486813     -1.08357035
C       1.90731690     -0.61431942      0.01875451
C       0.80952734     -0.40120000      1.09001230
H      -3.61683601     -0.98788351     -0.01221502
H       0.85183025      2.06147140     -0.01900620
H      -0.60897186      2.10588279      0.71029852
H       0.45228319     -1.27367436     -1.50848731
H       1.10734913      0.32968015     -1.89071319
H       2.39187011     -1.58864921      0.00878274
H       2.68442640      0.14934239      0.04767455
H       1.04218403      0.24369906      1.93734824
H       0.39977257     -1.34010307      1.45925401
