15
b3lypvtz=-214489.2615506975
C      -2.87647994      0.43294360      0.66145831
C      -1.58018502      0.68536439      0.36041566
C      -0.49857097     -0.20528139      0.51806515
N       0.76907001      0.14460968      0.25090906
C       1.90679747     -0.56790681      0.28318553
N       3.11615556     -0.00840558     -0.15015505
O      -0.64678952     -1.50420492      0.91902384
H      -3.19130462     -0.48409907      1.14295049
H      -3.64568248      1.16170700      0.45854542
H      -1.32602640      1.65025132     -0.06992718
H       0.88139698      1.11805283     -0.00396006
H       1.84821219     -1.58747462      0.62170701
H       3.66011781      0.50472446      0.53162591
H       3.10877721      0.46082941     -1.04418425
H      -1.52548826     -1.80111031      0.65165375
