12
b3lypvtz=-179623.10368821
C       2.97188014     -0.00354876     -0.00006707
C       1.76889506     -0.00639556     -0.00007381
C       0.35347973      0.00600339     -0.00009183
C      -0.47399909     -1.10278370      0.00006887
N      -1.76419364     -0.66021756     -0.00003465
H      -2.57388600     -1.25350087     -0.00000487
C      -1.79155092      0.71291193     -0.00006655
C      -0.49687773      1.15730258      0.00008547
H       4.03271769     -0.00337064     -0.00015153
H      -0.22962794     -2.14990992      0.00013232
H      -2.72171537      1.25302323     -0.00014539
H      -0.17155393      2.18292987      0.00022105
