17
b3lypvtz=-217690.44655725
C      -0.90497059     -1.29269613      0.20154575
C      -0.34242272      0.12357503      0.25226049
C      -1.10689399      1.05906722     -0.68790601
C       1.15606135      0.19886445     -0.04637302
C       1.85657780     -0.66773054     -0.77333663
O       1.75121991      1.31491372      0.46584395
O      -0.54876910      0.68094654      1.57740086
H      -1.95522334     -1.27382296      0.49273542
H      -0.36208434     -1.95533766      0.87794266
H      -0.83807870     -1.71235076     -0.80115147
H      -0.71069818      2.07195376     -0.62497387
H      -2.16117587      1.08014679     -0.41180488
H      -1.01195232      0.71714767     -1.71748405
H       1.39523524     -1.53848616     -1.20873772
H       2.90844075     -0.50145459     -0.95558598
H       1.14298652      1.66890125      1.13243597
H      -0.26825243      0.02636238      2.22718851
