13
b3lypvtz=-190435.18110498
C       2.86226761      0.02757232      0.72607126
C       1.77716541      0.13416535      0.22697964
C       0.45598079      0.22350056     -0.38183312
C      -0.49290621     -0.94893191      0.01675339
N      -1.78010679     -0.24323345      0.09061244
C      -1.47123237      1.09864886      0.23219525
N      -0.27613655      1.46465854     -0.00969764
H       3.82356814     -0.04970530      1.16887526
H       0.57995889      0.23806422     -1.47059064
H      -0.50803048     -1.74275445     -0.72725903
H      -0.20659790     -1.37084912      0.98357772
H      -2.50625206     -0.62725072      0.67558114
H      -2.25767846      1.79611511      0.49793996
