15
b3lypvtz=-193549.53659024
C       0.91938648     -0.50742447      0.13798856
C       0.67532964      0.75329196      0.94929534
C       1.09446324      2.11945315      0.36118457
C      -0.20006638      2.23215179     -0.50418886
C      -0.66845223      1.50011058      0.79278218
C      -0.01985562      2.86967507      1.14685814
O      -0.55120676      3.56661861     -0.02327373
H       0.62023070     -0.38170559     -0.90469711
H       0.35696054     -1.35074637      0.54438518
H       1.97620937     -0.78252293      0.14840571
H       0.98041667      0.61014724      1.98946721
H       2.08082811      2.50301655      0.10764521
H      -0.37392268      1.99785698     -1.55066798
H      -1.68184074      1.18111158      1.02863643
H       0.02871967      3.39406583      2.09787916
