17
b3lypvtz=-215286.49791711
C      -2.84048466     -0.04615587      0.22058415
C      -1.44731023      0.47223550     -0.12834156
N      -0.55054805     -0.64774552     -0.34178994
C       0.67034163     -0.62905003     -0.02878756
O       1.32388502     -1.83731232      0.02221191
N       1.52498882      0.42053214      0.27818605
C       1.34784227      1.81000934     -0.10218628
H      -3.54177855      0.78085731      0.35176537
H      -3.21081010     -0.69769704     -0.57100598
H      -2.81330335     -0.62602910      1.14414892
H      -1.51912887      1.07498337     -1.04112416
H      -1.10554269      1.14146466      0.66979999
H       2.24749097     -1.69784108     -0.21547835
H       2.22786017      0.22465044      0.97141408
H       2.32597034      2.25313681     -0.29605897
H       0.77467823      1.86128188     -1.02420007
H       0.84055004      2.41572953      0.65313638
