14
b3lypvtz=-203689.52964864
N       2.67576423      0.30903139     -0.07870157
C       1.58303436     -0.56199424      0.01303409
C       0.28921834     -0.21306591      0.00139286
C      -0.31988789      1.10992429     -0.01098173
C      -1.64908276      0.95562124      0.00785682
O      -2.07438800     -0.33806127      0.02623578
C      -0.88631880     -1.17663904     -0.01251678
H       2.46962591      1.26937134      0.15297590
H       3.49511824     -0.00644038      0.41799240
H       1.86022218     -1.60954586      0.02017617
H       0.18862667      2.05942855     -0.03319703
H      -2.43589802      1.69336209      0.01287845
H      -0.94339834     -1.78133802     -0.92100039
H      -0.92320309     -1.84165317      0.85276403
