18
b3lypvtz=-181894.16425801
C      -0.31389593     -1.26360833      1.57970135
C      -0.60022404     -0.43361404      0.58806878
C      -1.69169693     -0.39210056     -0.46805508
C      -1.32689187      1.10167137     -0.71734289
C      -0.05326398      0.92509936      0.16595345
C       1.25448146      0.87533492     -0.62455354
N       2.36650999      0.46917380      0.23566952
H       0.48068974     -1.04781316      2.28341012
H      -0.87518381     -2.17759712      1.73384970
H      -1.48592735     -1.03170714     -1.32893326
H      -2.70434180     -0.60270891     -0.12334360
H      -1.14944077      1.38638807     -1.75434726
H      -2.04884675      1.79152274     -0.28406538
H       0.06238660      1.63955672      0.98222556
H       1.46491859      1.87947307     -1.00230614
H       1.11732729      0.22774059     -1.50399297
H       2.25762212     -0.50349401      0.50000783
H       3.24577743      0.53961326     -0.26194618
