17
b3lypvtz=-215291.92293104
N       3.20825379     -0.33086507      0.11479037
C       1.95337980      0.40129360     -0.08727962
C       0.76784904     -0.54121236      0.07502213
C      -0.58393849      0.14232537      0.01929795
O      -0.70516407      1.34711391      0.04581534
C      -1.80689626     -0.77268869     -0.07461151
N      -3.10323040     -0.12837832      0.02156923
H       3.99110163      0.31178910      0.12664149
H       3.37572003     -0.97020865     -0.65427648
H       1.88797963      1.18272875      0.66949786
H       1.88131446      0.90698854     -1.05862557
H       0.79263660     -1.33574273     -0.67937608
H       0.84496894     -1.05866557      1.03772616
H      -1.72265425     -1.54840674      0.69237672
H      -1.73467285     -1.30651833     -1.02966868
H      -3.21437518      0.27714504      0.94414092
H      -3.13270241      0.65879515     -0.61750924
