16
b3lypvtz=-202037.02542954
C       2.13279740     -0.93068142     -0.57347696
C       1.16835578     -0.73972306      0.60677569
C      -0.14774211     -0.11267162      0.23287963
C      -1.29959675     -0.83154981      0.12576279
N      -2.50020192     -0.35480575     -0.30052743
N      -0.28240362      1.24804435     -0.02091385
N       0.76714372      1.93611802      0.06193534
H       3.07179200     -1.37424815     -0.23616017
H       1.70152389     -1.58947535     -1.32959360
H       2.36023100      0.02517145     -1.04223878
H       1.65183465     -0.10882819      1.35597953
H       0.97466918     -1.70644697      1.07831840
H      -1.28393568     -1.89057753      0.35314086
H      -3.33509633     -0.85054791     -0.04544439
H      -2.57392750      0.64628893     -0.39350379
H       0.49072229      2.90676301     -0.12606226
