14
b3lypvtz=-180346.78907933
C       2.13016065      0.60413355     -1.40054577
C       1.51276595      0.09381522     -0.50605630
C       0.79080727     -0.52009188      0.56806551
C      -0.41070973     -1.38348692      0.29784701
C      -0.62765590     -0.04939121      0.95445110
C      -1.30197619      1.08271174      0.26184801
N      -1.40312058      1.32309679     -0.97752956
H       2.67324197      1.06199668     -2.18920623
H       1.40564447     -0.80646173      1.41215649
H      -0.54243154     -2.27238167      0.89821945
H      -0.72058171     -1.48023058     -0.73371991
H      -0.80867978     -0.07382023      2.02094798
H      -1.76721555      1.80135355      0.93987409
H      -0.93034932      0.61875668     -1.54645186
