17
b3lypvtz=-194371.26738108
C       2.51159611      0.51262660      0.71206773
C       1.49313749      0.04691411     -0.00882105
C       0.05500551      0.21835115      0.36305276
C      -0.88724146     -1.02226906      0.45035727
C      -2.02597138     -0.15265266     -0.13684813
C      -0.95207984      0.83408624     -0.65728264
O       1.75607837     -0.63697923     -1.17038406
H       2.32723190      1.05229111      1.62763158
H       3.53428907      0.36138638      0.39820202
H       0.00958625      0.77470027      1.29812243
H      -1.02732758     -1.46685135      1.43433529
H      -0.58638393     -1.81329740     -0.23974050
H      -2.68770934     -0.61269469     -0.86919344
H      -2.63577219      0.29441424      0.64817576
H      -1.14468938      1.90265940     -0.57625952
H      -0.67160545      0.61729190     -1.69018719
H       0.93185587     -0.90997699     -1.58322831
