16
b3lypvtz=-258673.04081787
C      -2.29794449     -0.56627768     -0.22683871
N      -1.39308764      0.39538560      0.39838019
C      -0.09115453      0.56573214     -0.24056188
C       0.42393441      1.98577233     -0.01866677
C       0.89005249     -0.43968176      0.34976848
F       0.49653546     -1.72373333      0.07822799
F       2.12932468     -0.28803045     -0.21766328
H      -3.26640205     -0.51419818      0.27039221
H      -2.45125712     -0.38783988     -1.30165203
H      -1.91617948     -1.57791284     -0.10750321
H      -1.84816503      1.29487445      0.46630821
H      -0.13330035      0.36010880     -1.32122672
H      -0.24202992      2.70398375     -0.49910690
H       0.46248032      2.21800729      1.04782465
H       1.42002493      2.11356874     -0.43681639
H       0.98982132     -0.34305897      1.43247614
