12
b3lypvtz=-223785.29433907
N      -2.64093707     -0.11373651      1.40188848
C      -2.15890799      0.04630450      0.23612677
C      -0.75144710     -0.00720360     -0.19114416
C       0.28542170      0.25881783      0.61039270
N       1.63895486      0.27557993      0.21976753
N       1.96107904     -0.59369988     -0.59682695
O       3.25609831     -0.46406270     -0.99386287
H      -1.90737567     -0.33071459      2.08071469
H      -2.87362355      0.24115620     -0.56549829
H      -0.56415060     -0.22645560     -1.23540623
H       0.14689269      0.59629184      1.62967418
H       3.60799538      0.31762259     -0.52142586
