17
b3lypvtz=-191981.59702248
C       3.02265556      0.19930898     -0.44792825
N       1.82306637      0.18560728      0.36691842
C       0.88123800     -0.58619621      0.03641166
C      -0.40825149     -0.66465759      0.81085510
C      -1.55028507     -0.06300112      0.00772094
C      -1.67347903      1.43816168      0.06724933
N      -2.29361075     -0.84523697     -0.66142361
H       2.98277297     -0.48615389     -1.30469802
H       3.88047703     -0.06195775      0.17495497
H       3.19540719      1.21364407     -0.81348933
H       0.94018042     -1.23279892     -0.85072547
H      -0.27655816     -0.13649404      1.75533471
H      -0.65107095     -1.71043213      1.00199014
H      -1.97177385      1.74862202      1.07216881
H      -0.71055411      1.91309861     -0.13176020
H      -2.41065594      1.80727620     -0.64518308
H      -3.00306717     -0.32180822     -1.17699814
