17
b3lypvtz=-194382.17398519
C       2.31942339     -1.24048361      0.04522127
C       1.92641586      0.22596590     -0.13941207
C       0.56521926      0.55660002      0.43074807
C      -0.24737608      1.68665622     -0.08577924
C      -0.68286979      0.25997907     -0.39453500
C      -1.86996450     -0.27597094      0.29127551
O      -2.64368453     -1.07317114     -0.18032307
H       3.31022030     -1.43590390     -0.36721691
H       1.61114695     -1.90483998     -0.45255016
H       2.34116430     -1.51193402      1.10266939
H       2.67134490      0.86868123      0.33966492
H       1.94104925      0.48336549     -1.20221367
H       0.46174186      0.35375934      1.49202024
H       0.13276549      2.25804569     -0.92162180
H      -0.85290540      2.25395599      0.60866180
H      -0.53946644     -0.10256118     -1.40389363
H      -2.01839482      0.11362481      1.32399135
