18
b3lypvtz=-205230.18010322
C      -2.63636824     -0.67590853      0.21254510
C      -1.34953344      0.05804671     -0.10114574
O      -1.36110009      1.19135686     -0.53167358
C      -0.06109605     -0.70813291      0.14129021
C       1.21678011      0.01544162     -0.28464309
C       2.42823376     -0.90381081     -0.15580168
N       1.40856787      1.19066796      0.57285900
H      -2.59456651     -1.13419908      1.20236830
H      -2.78026993     -1.48594391     -0.50736696
H      -3.47845938      0.00898264      0.15243245
H      -0.00722437     -0.93704306      1.21164932
H      -0.14610331     -1.67335345     -0.36964076
H       1.10271355      0.28957114     -1.34326598
H       3.33712310     -0.39080704     -0.47776379
H       2.56728531     -1.21190630      0.88214692
H       2.31556361     -1.79633007     -0.77351824
H       0.67981116      1.86702442      0.37515634
H       2.29207286      1.63716280      0.35510018
