17
b3lypvtz=-194375.73630902
C       0.88385769      1.27161314     -0.69257768
C       0.71335433     -0.23908755     -0.57356035
C       1.85454073     -0.87961450      0.19546367
O       2.81136582     -0.29843708      0.63739354
C      -0.60030901     -0.73356554      0.03297842
C      -1.24047459     -0.08301168      1.23078665
C      -1.90451514     -0.00143534     -0.11943569
H       1.86890653      1.50463311     -1.09362024
H       0.81309865      1.76238206      0.27791042
H       0.13472692      1.70146835     -1.35638385
H       0.77373145     -0.67965377     -1.57989738
H       1.75019078     -1.97724637      0.33710783
H      -0.68487711     -1.81439125      0.00746696
H      -1.67769774     -0.72360304      1.98376290
H      -0.79703335      0.82115462      1.62335539
H      -1.90248871      0.95682242     -0.61878119
H      -2.79617725     -0.58812758     -0.29196940
