12
b3lypvtz=-257134.89332288
C       0.56945667     -1.77795448      0.24705620
C       0.84070247     -0.48148244      0.03319371
N       2.10092538      0.00546580     -0.31533957
C      -0.20033537      0.55546487      0.07895074
F       0.28272308      1.81619617      0.27982641
C      -1.52064265      0.48005871     -0.05586910
F      -2.15902425     -0.67778345     -0.28148204
H       1.35224326     -2.52131304      0.18229848
H      -0.42844389     -2.11601049      0.46388807
H       2.28250848      0.95804463     -0.04392630
H       2.86391583     -0.61223896     -0.09002093
H      -2.16969901      1.34050866      0.00571832
