15
b3lypvtz=-240257.83135035
C      -0.64370507      1.37418813     -0.19267613
C       0.02644926      0.00170352     -0.13293840
C      -0.99169248     -1.12864081     -0.03263184
O       0.82270466     -0.12404999     -1.33375239
C       0.96453668     -0.02546866      1.09745080
O       0.55935653     -0.08067597      2.22617548
O       2.27242382      0.05131260      0.80240177
H      -1.33331789      1.40813238     -1.03580700
H       0.10297390      2.15705881     -0.32651640
H      -1.18871226      1.56691221      0.72954189
H      -1.69297558     -1.07499507     -0.86595789
H      -0.49797732     -2.10372031     -0.04660092
H      -1.54202884     -1.05372234      0.90257056
H       0.80859787     -1.04285155     -1.62103810
H       2.33326671      0.07471704     -0.16992143
