12
b3lypvtz=-257143.07010391
C       2.68380590     -0.23196770     -0.00378171
C       1.41698969     -0.65754578     -0.01521178
C       0.26272467      0.19424538      0.01548483
F       0.48287913      1.54541553      0.03967534
C      -1.02918550     -0.17194042      0.00346418
N      -2.12996913      0.64226536     -0.10284023
F      -1.34911957     -1.47631926      0.02592282
H       3.50314534     -0.93564428     -0.02550058
H       2.92889261      0.82044022      0.02680950
H       1.19682834     -1.71752542     -0.04697361
H      -2.91209601      0.36201560      0.47262314
H      -1.91318748      1.62407678     -0.02076490
