14
b3lypvtz=-224605.39566351476
C       0.19300468     -1.25027548      0.26068351
C      -0.31666922      0.19224096      0.01074384
O       0.90692700      0.87147745     -0.46588025
C       1.85197371     -0.09488392     -0.55974604
N       1.58434569     -1.27663456     -0.20127918
N      -0.83123165      0.79808557      1.20376683
N      -1.23987493      0.26658385     -1.10116680
H       0.14428879     -1.51764047      1.31838434
H      -0.40612164     -1.96820406     -0.29802566
H       2.80880415      0.24094921     -0.93896332
H      -0.16540645      0.75436954      1.96621120
H      -1.07625047      1.76892906      1.04665870
H      -2.16657072     -0.00221749     -0.79036020
H      -1.28721895      1.21722036     -1.45102697
