16
b3lypvtz=-204431.2618169
C      -1.77940798     -0.80055474     -0.79827339
N      -1.28481692     -0.54438707      0.54462977
C      -0.90942528      0.81753426      0.89031664
C       0.12775637     -0.24931489      0.77457312
C       1.16975585     -0.22797994     -0.33180474
C       2.32893813      0.65705699      0.05874628
O       3.45003771      0.26834094      0.26047277
H      -1.36661039     -0.14131385     -1.57324356
H      -2.86214232     -0.66985066     -0.79466239
H      -1.56554123     -1.83433412     -1.07283586
H      -0.93833593      1.56299801      0.09925681
H      -1.23366353      1.17551336      1.85997672
H       0.49766792     -0.69028970      1.69456455
H       1.54925354     -1.23119229     -0.53026003
H       0.74107701      0.17558202     -1.25258934
H       2.07545707      1.73229167      0.17133266
