11
b3lypvtz=-238874.58714177
C      -1.43985590     -1.04659159      0.39658900
C      -1.02248012      0.14409943     -0.00645824
F      -1.90234307      1.15940409     -0.15170709
C       0.35584797      0.54910224     -0.34049773
N       0.71610242      1.65493451     -0.83715390
N       1.32179623     -0.50601503     -0.15882693
N       2.32406368     -0.16161697      0.47477160
H      -0.73426410     -1.85557411      0.49167241
H      -2.48246689     -1.22098240      0.61763300
H      -0.09142917      2.26107414     -0.98026577
H       2.95502893     -0.97773432      0.49434365
