15
b3lypvtz=-216910.83580244
C       3.00663765     -0.24735685      0.05590733
C       1.55161394     -0.22661238      0.05314371
C       0.35115428     -0.21528205      0.05716641
C      -1.12007501     -0.16742954      0.02928575
C      -1.66365535      1.10570130      0.67265271
O      -1.60572258     -0.16847435     -1.30539235
O      -1.56839479     -1.32846907      0.71545685
H       3.40760017      0.52222529      0.71820196
H       3.40350871     -0.06733610     -0.94496639
H       3.38285215     -1.21323623      0.39788080
H      -2.75301292      1.10302945      0.60398756
H      -1.36627001      1.14556536      1.71822260
H      -1.28586944      1.98469333      0.15414859
H      -1.20741581     -0.92253183     -1.75589717
H      -2.53295101     -1.30448632      0.70229922
