16
b3lypvtz=-204416.96788526603
C      -1.58949938     -0.22306180     -0.95667759
C      -0.89372650      0.48156274      0.18557764
C       0.38115863      1.29267523     -0.16847373
C       1.18222305      0.22647826      0.56024547
N      -0.06283688     -0.48258035      1.03280338
H       0.00427406     -1.47362369      0.74793889
H      -0.24793484     -0.44980585      2.03313488
C       2.13683257     -0.68933021      0.13530081
O       2.08539581     -1.90796642      0.42038959
H      -0.87010114     -0.77453293     -1.56421770
H      -2.07534226      0.51455960     -1.59624566
H      -2.35260497     -0.91711187     -0.59943295
H      -1.60651727      1.00271854      0.82452318
H       0.55457448      1.39366117     -1.24249840
H       0.38761841      2.29318202      0.27309186
H       2.96648621     -0.28682444     -0.47491755
