11
b3lypvtz=-236290.54345205
C       1.62501993     -0.09042120      0.16313546
C       0.16848321     -0.35406412      0.12950810
O      -0.30126281     -1.56435731      0.48648557
N      -1.71002151     -1.53004263      0.35918170
N      -2.02922994     -0.37761807     -0.04314453
C      -0.91683299      0.39387081     -0.20410369
O      -0.95959747      1.67416552     -0.62604015
H       2.02488902     -0.22571695      1.16980139
H       2.16188210     -0.76854104     -0.50285445
H       1.81891215      0.93273733     -0.15315762
H      -1.88234170      1.90988766     -0.77891179
