14
b3lypvtz=-224610.40360327
N       2.36297379     -0.90630438      0.30754904
C       1.35537676     -0.21075972     -0.02014942
O       1.49192279      1.15348858     -0.28503139
C       0.01988774     -0.76869390     -0.14321989
C      -1.15888582     -0.11273209      0.00984163
N      -1.30935609      1.25497767      0.21745536
N      -2.37759540     -0.78176788     -0.00718557
H       3.20899797     -0.34067211      0.26707190
H       0.85828102      1.40027748     -0.96970553
H      -0.01284132     -1.83891859     -0.28318383
H      -0.48216309      1.70956110      0.57540418
H      -2.12443997      1.48203932      0.76852647
H      -2.31933336     -1.73569332     -0.32658472
H      -3.12162703     -0.27874616     -0.46958824
