15
b3lypvtz=-193581.00490396
C       2.46960567      0.21712389     -0.26550166
C       1.26253107      0.60639111     -0.66351006
C       0.00088703      0.30787120      0.01855578
C      -0.24349552     -0.61626804      1.16433849
C      -1.02528282     -0.81704131     -0.11322827
C      -2.04848864      0.29217419     -0.25772494
O      -1.03426760      1.31278357     -0.03139052
H       3.35186469      0.44559380     -0.84758606
H       2.61742238     -0.34411236      0.64822733
H       1.15316696      1.19159635     -1.57119104
H       0.51830515     -1.36301121      1.34400416
H      -0.73255720     -0.23130608      2.05184200
H      -0.97650320     -1.72595564     -0.69291086
H      -2.85318351      0.33907376      0.48041591
H      -2.46010446      0.38518676     -1.26444026
