14
b3lypvtz=-224551.07326023
C      -3.42696070     -0.38624288      0.16266512
N      -2.25923323      0.40593497     -0.17529874
N      -1.08077496     -0.24032184     -0.13609227
C       0.00144928      0.44096638     -0.01865308
C       1.27429045     -0.23572678     -0.04544168
N       2.35185264      0.44021335      0.07691879
O       3.47705538     -0.39361354      0.03174283
H      -3.46164974     -0.67459195      1.21969157
H      -3.42325896     -1.29114247     -0.44197060
H      -4.32050070      0.18976646     -0.07579586
H      -2.25685134      1.35531192      0.18787147
H       0.00473793      1.52772547      0.09569453
H       1.28579327     -1.31663991     -0.16813034
H       4.20587568      0.22715082      0.13032026
