12
b3lypvtz=-308774.23463718
O       1.40530446      1.08341339      0.78666816
C       1.14879967     -0.22746153      0.31504746
C      -0.07911217     -0.34652563     -0.58849777
C      -1.39575934      0.01565705      0.06522846
F      -1.57988150     -0.64087166      1.23010753
F      -2.43198716     -0.31401867     -0.74065405
F      -1.50680000      1.33115173      0.32397471
H       1.56509958      1.66588837      0.03793158
H       1.01061098     -0.83844774      1.20612115
H       2.00982189     -0.63136777     -0.22942858
H       0.02446437      0.28155460     -1.47578993
H      -0.17046077     -1.37897213     -0.93080871
