12
b3lypvtz=-200533.16982127
C       2.56100171      0.26938066      0.00001050
N       1.59376030     -0.55306659      0.00004275
C       0.28201399     -0.11172608      0.00003341
C      -0.37548370      1.11300169     -0.00006761
C      -1.73815922      0.78137424      0.00000821
N      -1.93276783     -0.53838991      0.00014286
N      -0.70032685     -1.05196386      0.00014694
H      -0.55664420     -2.04805866      0.00022180
H       3.57420512     -0.12025697      0.00002273
H       2.44110015      1.35549736     -0.00000921
H       0.06219010      2.09523861     -0.00010390
H      -2.58818258      1.44404750     -0.00019249
