17
b3lypvtz=-191987.55487353
C      -2.51645144     -0.44287574      0.00564930
C      -1.34004709     -0.50114736     -0.60559027
C      -0.17551722      0.43596723     -0.41591133
C      -0.43884193      1.60345509      0.54613732
C       1.07582454     -0.33211814      0.02911344
N       1.09843217     -1.36346537      0.77688584
N       2.26394424      0.24867512     -0.36838831
H      -3.29163956     -1.16617837     -0.21016753
H      -2.75640679      0.31935883      0.73500474
H      -1.16614136     -1.29741713     -1.32330076
H       0.04584222      0.86310466     -1.40279100
H      -1.27404480      2.21327025      0.20057691
H      -0.66950823      1.23849543      1.54738528
H       0.44316818      2.23822234      0.61774712
H       0.15607253     -1.63479106      1.04447012
H       3.08481480     -0.30629509     -0.18263937
H       2.27582273      0.75001331     -1.24001449
