17
b3lypvtz=-194384.09105173
C       2.33618154      0.00000005     -0.34317991
C       1.09588642      0.00000003      0.13619504
C       0.30863393      1.25599324      0.40398521
C      -1.05797648      1.17869840     -0.28994397
O      -1.76168503     -0.00000004      0.07314981
C      -1.05797646     -1.17869846     -0.28994396
C       0.30863397     -1.25599322      0.40398520
H       2.86672729      0.92286993     -0.54298511
H       2.86672729     -0.92286985     -0.54298513
H       0.85134801      2.14118511      0.06717975
H       0.13487682      1.35883083      1.48042114
H      -1.69313663      2.01497365      0.00107142
H      -0.92254805      1.21152762     -1.38005790
H      -1.69313655     -2.01497376      0.00107143
H      -0.92254803     -1.21152763     -1.38005789
H       0.13487687     -1.35883082      1.48042113
H       0.85134809     -2.14118508      0.06717975
