13
b3lypvtz=-211331.81010157
C       0.91295091     -0.45160420     -0.25016293
C      -0.31807871     -0.05152626      0.10803841
N      -1.39929591     -0.89835108      0.21629303
N      -2.65924500     -0.56022162      0.57124971
N      -2.82500914      0.65102934      0.81944925
C       2.01966059      0.47652734     -0.35016212
N       3.18713292      0.08955734     -0.69087113
H       1.12904863     -1.48945991     -0.47978442
H      -0.55047541      0.97774177      0.34000295
H      -1.30369289     -1.88083270      0.02414974
H      -3.81114216      0.74345677      1.06747618
H       1.78049902      1.52066297     -0.11415992
H       3.83764715      0.87302026     -0.70858257
