14
b3lypvtz=-203684.9764148
C      -0.81624614     -0.83189594      0.23903698
C      -1.89918513      0.24534368      0.05579352
O      -0.94731488      1.14757846     -0.56829626
C       0.07790936      0.13190090     -0.56306034
C       1.35708488      0.65844296      0.09030959
C       2.40195266     -0.35761953      0.14437623
N       3.20273523     -1.18291283      0.17859228
H      -0.49629296     -0.98316036      1.26825663
H      -1.00887041     -1.79715748     -0.22111650
H      -2.32623340      0.67520929      0.96275270
H      -2.70389614     -0.02025861     -0.63310190
H       0.30002678     -0.20902099     -1.57846061
H       1.72058660      1.51812072     -0.47727220
H       1.13774354      1.00542974      1.10218986
