16
b3lypvtz=-204461.51656494
C       2.09019574     -1.07704381     -0.15299053
C       0.79085506     -0.28365315     -0.31141371
C       0.99395232      1.14829407      0.17105726
O      -0.19764788      1.88556476     -0.05116009
C      -0.35551372     -0.99721945      0.44359302
C      -1.70935457     -0.62978077      0.03708051
N      -2.79086500     -0.40948005     -0.28673690
H       1.98867244     -2.08266314     -0.56218798
H       2.37216293     -1.17206136      0.89873246
H       2.91360980     -0.58772897     -0.67483163
H       0.52653719     -0.24286145     -1.37081282
H       1.83753764      1.59012314     -0.37328281
H       1.25825114      1.13499389      1.23784217
H      -0.10706139      2.76309272      0.32980682
H      -0.26565937     -2.07593196      0.29358184
H      -0.25640332     -0.82353645      1.51894039
