15
b3lypvtz=-219519.98396248
C       2.55047880     -0.48303217      0.04742680
C       1.25376782     -0.69399881      0.28518667
N       0.22338210      0.22076476      0.10399633
C       0.54737830      1.58060219     -0.31019340
C      -1.07725445     -0.23156635     -0.00004639
C      -1.52278827     -1.42483095     -0.38030941
F      -1.96540882      0.71426731      0.39111816
H       3.26253581     -1.25720437      0.28814473
H       2.93753780      0.43437218     -0.36965094
H       0.91382436     -1.63725877      0.69092056
H      -0.35246565      2.18549132     -0.30001844
H       0.97687883      1.59408393     -1.31699284
H       1.27111260      2.00953453      0.38280321
H      -2.56833042     -1.66422260     -0.27341235
H      -0.85209582     -2.16116420     -0.79009570
