16
b3lypvtz=-204462.26838405
C       1.55205581     -1.41815538      0.45815199
C       1.04229549     -0.10247435     -0.07984956
O       1.66472036      0.55437617     -0.88031270
C      -0.34115488      0.35337194      0.41941848
C      -0.44735463      1.88179348      0.45499743
C      -1.38148280     -0.23470776     -0.51732782
N      -2.26185933     -1.10554127     -0.25976139
H       1.77022130     -1.31702357      1.52471686
H       0.79044156     -2.19473838      0.36107672
H       2.45590620     -1.71302371     -0.06878876
H      -0.50967690     -0.06858247      1.41382914
H       0.28356200      2.30200287      1.14615372
H      -1.44257267      2.19015035      0.77550870
H      -0.24839496      2.29997214     -0.53030564
H      -1.34599736      0.16235621     -1.53496307
H      -2.20957118     -1.40843226      0.71595789
