12
b3lypvtz=-200524.93456891
C       2.10877806     -0.94100275      0.05349642
N       0.71656094     -0.97257077     -0.39002118
C      -0.15743023     -0.08231971      0.36786069
C       0.13272485      1.32973388      0.04269557
N       0.39231415      2.42715620     -0.17555084
C      -1.56678289     -0.39321402      0.08136632
N      -2.66139633     -0.68112791     -0.11418681
H       2.23790756     -1.16378051      1.12192128
H       2.53439523      0.04252248     -0.14599904
H       2.67194399     -1.67030019     -0.52549400
H       0.34085896     -1.91129006     -0.35063706
H      -0.03077827     -0.17489564      1.46119366
