17
b3lypvtz=-215266.15456825
C      -1.88588291      1.48016072      0.59274503
C      -1.06933255      0.25260298      0.31963072
N       0.10691427      0.43682980     -0.13909032
O       0.77883711     -0.77258047     -0.37673464
C       2.11311904     -0.47691559     -0.84439163
N       3.01773761      0.04311161      0.13017966
C      -1.66085177     -1.10270641      0.58584130
H      -2.17893106      1.52112316      1.64546553
H      -2.80902611      1.46513115      0.00686584
H      -1.32414870      2.37817655      0.34499749
H       2.03358909      0.22771234     -1.67235904
H       2.46954697     -1.43922732     -1.20910935
H       3.10860305     -0.58239918      0.92118704
H       2.69802187      0.94134168      0.47018187
H      -1.03572318     -1.66133129      1.28438128
H      -1.69564309     -1.68996856     -0.33366030
H      -2.66682966     -1.02106113      0.99354758
