19
b3lypvtz=-192749.03009626
C       2.41119143     -0.19051080      0.11948658
C       1.19078481      0.19588526     -0.71890365
N      -0.03592770      0.33244632      0.04904659
C      -0.77988972     -0.86577462      0.42588878
C      -1.87630453     -1.23198646     -0.57473680
C      -0.51330409      1.55911826      0.39840303
N      -1.59310747      1.72850833      1.06296779
H       3.29253202     -0.29669145     -0.51619433
H       2.62003308      0.57156849      0.87166728
H       2.25628038     -1.13884407      0.63567626
H       1.03262677     -0.54620950     -1.50708775
H       1.38088996      1.14382676     -1.22585070
H      -1.22358389     -0.68474806      1.40428556
H      -0.06820266     -1.68708402      0.52761075
H      -2.61108331     -0.43052305     -0.63582001
H      -1.46569568     -1.40546439     -1.57140771
H      -2.38817605     -2.14330580     -0.25926195
H       0.12822284      2.37327203      0.04663451
H      -1.75728617      2.71651677      1.22175564
