13
b3lypvtz=-242075.62427572
C      -0.74565344      1.93543866      0.00021526
C      -0.00141801      0.62413612      0.00008887
C       1.34260848      0.64308359      0.00012562
O       2.15159888     -0.43916836     -0.00000680
C      -0.82063922     -0.59237461     -0.00005145
N      -2.07250000     -0.71624917      0.00001232
F      -0.10429174     -1.73302361     -0.00002510
H      -1.38512231      2.03254701      0.88128976
H      -0.05490759      2.77764803      0.00036436
H      -1.38501374      2.03277383     -0.88091322
H       1.84987702      1.60274944      0.00028177
H       3.06882792     -0.15192819      0.00007965
H      -2.53458024      0.18679227      0.00002496
