13
b3lypvtz=-247070.87835229
C      -0.84324093     -0.25609245     -1.18941157
C      -0.40014010      0.28549955      0.14499391
C      -1.23014699      1.08868181      0.81343641
F      -0.91778454      1.62007674      2.01525525
C       0.89945333     -0.04477129      0.71477430
C       1.85969580     -0.81647516      0.21561877
F       1.77709064     -1.45489249     -0.97017055
H      -0.86353129     -1.34634663     -1.18506196
H      -0.16117852      0.04742235     -1.98424226
H      -1.84114914      0.10367221     -1.43929192
H      -2.21141726      1.39234324      0.47763794
H       1.13061181      0.39064174      1.67773695
H       2.80173718     -1.00975963      0.70872473
