15
b3lypvtz=-191233.21627212
C       2.57910533     -0.48443375     -0.00016797
C       1.13720242     -0.08252394      0.00003557
C       0.02535152     -0.89979608      0.00028785
N      -1.07001113     -0.09812143      0.00042987
C      -2.46287870     -0.48929927     -0.00029538
N      -0.74029039      1.20326789      0.00019615
C       0.58892196      1.21806977     -0.00000973
H       3.10345562     -0.10339049     -0.87940419
H       3.10380731     -0.10333477      0.87883786
H       2.68542239     -1.56947490     -0.00013091
H      -0.06241061     -1.97346898      0.00042489
H      -2.52480320     -1.57513357      0.00342108
H      -2.96262843     -0.10361857     -0.88861902
H      -2.96487958     -0.09738755      0.88396779
H       1.11117050      2.16217664     -0.00009286
