19
b3lypvtz=-192726.33973646
C      -1.20630042      1.15665121     -0.77104888
C      -0.85169060     -0.09234996      0.00893445
C      -1.91380428     -1.10560621      0.22171901
N      -1.44925844     -0.27057384      1.34655037
C       0.59430133     -0.55027143     -0.07741489
C       1.60205521      0.42266903      0.55109783
N       2.99329517     -0.03504767      0.57263244
H      -2.27388107      1.37259240     -0.69941760
H      -0.95967626      1.04053245     -1.82901502
H      -0.66354856      2.02784281     -0.39876174
H      -2.89512053     -0.91210608     -0.19635257
H      -1.65583764     -2.15529362      0.29657759
H      -2.12380306      0.46494583      1.53232346
H       0.68139715     -1.51266002      0.43310115
H       0.85713802     -0.72148436     -1.12773980
H       1.58182482      1.37997037      0.02526056
H       1.29759030      0.62587923      1.57975613
H       3.31650615     -0.23136353     -0.36827188
H       3.06881268     -0.90432660      1.08912578
