20
b3lypvtz=-182667.81165851
C       3.31568856     -0.33097712     -0.09497848
C       1.91959384     -0.18068773      0.42593708
C       0.85192977      0.10972158     -0.30933468
C      -0.54490154      0.27328884      0.22234801
C      -1.05999634      1.69444732     -0.03702292
N      -1.41301906     -0.71607358     -0.43179947
C      -2.74007183     -0.85940481      0.15330271
H       3.71811577     -1.32198508      0.13310298
H       3.99027977      0.39315986      0.37073907
H       3.35787545     -0.18722019     -1.17498633
H       1.79151360     -0.31764447      1.49742795
H       0.95713327      0.24465492     -1.38353120
H      -0.51848723      0.11661377      1.31460736
H      -2.05953272      1.83961023      0.37407262
H      -1.10176686      1.88998977     -1.10993073
H      -0.39866711      2.42633889      0.42723505
H      -0.94221475     -1.61194479     -0.41373082
H      -2.73369267     -0.99557047      1.24703838
H      -3.35433747      0.01411142     -0.06748528
H      -3.23531847     -1.72231336     -0.29241930
