14
b3lypvtz=-203643.19296857
C      -1.42178517      0.11641697      0.24498183
C      -0.31085746      1.02772308     -0.33322153
C       0.91890777      0.63175138      0.52941332
C       0.78345451     -0.84380506      0.44485802
C      -0.48860004     -0.90966757     -0.44441172
O      -0.21239366      0.10347147     -1.46279793
N       1.95048607     -0.17216196     -0.12049208
H      -2.37764805      0.23325933     -0.26255079
H      -1.53947999      0.06506587      1.32776486
H      -0.45911883      2.06543954     -0.61710773
H       1.18744939      1.19462820      1.41211707
H       0.93606849     -1.54241753      1.25529598
H      -0.81948086     -1.86427330     -0.84275521
H       1.85299781     -0.10543043     -1.13109408
