14
b3lypvtz=-231962.59226853
C       3.42291316     -0.17717307     -0.25136800
C       2.25747351     -0.21514639      0.02531384
C       0.84547043     -0.29565440      0.37499699
O       0.16052260      0.83905673     -0.15303222
C      -1.17188186      0.98615310      0.29891432
C      -2.17459376      0.10880336     -0.41728900
F      -2.05101993     -1.22547270     -0.01363788
H       4.45392421     -0.13727790     -0.50001437
H       0.42114118     -1.22635274     -0.01334081
H       0.73880964     -0.32130084      1.46773005
H      -1.43936619      2.02788684      0.10665011
H      -1.24080594      0.81243911      1.38068970
H      -3.19257449      0.42980428     -0.18244152
H      -2.01662356      0.14311262     -1.49654921
