18
b3lypvtz=-205226.41386666
C      -2.38362510     -0.13335154     -0.65177632
C      -1.41353553     -1.02936208      0.11686063
C      -0.40628016     -0.26557387      0.99912283
C       0.55585950      0.59036838      0.21316951
O       0.11060487      1.87561206      0.11372118
N       1.64762867      0.29080429     -0.34640844
C       2.19856393     -1.04543771     -0.30323831
H      -3.07718558     -0.73378967     -1.24251833
H      -2.97195379      0.48443587      0.02949219
H      -1.85930780      0.53910560     -1.33097513
H      -0.86612293     -1.66513504     -0.58314740
H      -1.97848132     -1.70383648      0.76535012
H      -0.94364665      0.38211727      1.69285188
H       0.16102494     -0.98028047      1.59573674
H       0.77214319      2.34183790     -0.41904063
H       2.21327490     -1.46672801     -1.31176533
H       3.23724683     -0.99300715      0.02976155
H       1.66794501     -1.74917734      0.34676326
