13
b3lypvtz=-242071.75197123
C       2.87760008     -0.26714508     -0.00007079
N       1.53353868     -0.81529111     -0.00004661
C       0.54374331     -0.02088418      0.00000364
O       0.60176293      1.34784418      0.00002644
C      -0.82175006     -0.53829192      0.00000949
C      -1.89516825      0.24029477      0.00005538
F      -3.13214728     -0.27840783     -0.00000465
H       3.08248757      0.34575861      0.88816036
H       3.08247178      0.34565163     -0.88837702
H       3.59575433     -1.08449711     -0.00002510
H       1.52277508      1.63065243      0.00004446
H      -0.91929695     -1.61373356     -0.00001769
H      -1.89459724      1.32036717     -0.00001591
