14
b3lypvtz=-201267.4123502
N      -2.60030001     -0.55725863      0.19975892
C      -1.42720931     -0.65823078     -0.26105521
C      -0.33327108      0.37277060     -0.18272233
N      -0.47510335      1.60663812      0.09034829
N       0.91292319     -0.15105647     -0.52811741
C       2.12492529      0.37180603      0.05835937
C       1.65954153     -1.00783988      0.39294807
H      -2.74250194      0.34517335      0.66359844
H      -1.14937037     -1.58394318     -0.76502207
H      -1.45733509      1.84933116      0.21328833
H       2.00815127      1.14612512      0.80583712
H       2.95408837      0.50119759     -0.62513151
H       1.24377395     -1.16494620      1.38160721
H       2.13959655     -1.86965082     -0.05226923
