13
b3lypvtz=-216155.03511651
C       1.44803893     -0.71041952     -0.06310281
C       0.17316617      0.07482763     -0.05721941
C      -1.14743677     -0.38385378     -0.70192792
C      -1.11093171     -0.00566507      0.72711509
O      -1.19175178      1.44786042      0.83056039
C       0.03930355      1.55606016      0.18789018
O       0.68163214      2.53899391      0.01757384
H       2.07989273     -0.44363440      0.78500178
H       1.24611926     -1.78099928     -0.01476836
H       2.01414999     -0.51831120     -0.97606624
H      -1.17059772     -1.44384635     -0.92459622
H      -1.67144090      0.25058962     -1.40500508
H      -1.39014391     -0.58160216      1.59454477
