17
b3lypvtz=-191963.46570099
C      -3.25988765      0.14209445     -0.00001671
N      -2.16763925     -0.51894314      0.00000453
N      -1.00356457      0.14350838      0.00001769
C       0.19572199     -0.55403279      0.00000714
C       1.42918568     -0.03464661     -0.00000041
C       2.62792422     -0.94119237     -0.00001203
C       1.72846342      1.43884240     -0.00000079
H      -4.18551053     -0.41465745     -0.00002462
H      -3.30067183      1.23380055     -0.00002939
H      -1.01155049      1.15598226     -0.00001488
H       0.03704246     -1.62350447      0.00000928
H       3.26004690     -0.76625440     -0.87742883
H       3.26005986     -0.76625956      0.87739644
H       2.34068192     -1.99275693     -0.00001332
H       0.84015747      2.07107513      0.00003921
H       2.32181381      1.71656738      0.87714621
H       2.32174958      1.71658316     -0.87718652
