17
b3lypvtz=-215271.088857217
C      -2.30121719     -0.71881854      0.04598129
C      -1.12152952      0.19058414      0.26373896
C      -0.54596597      1.04086203     -0.81012433
N       0.13812581     -0.17869152     -0.36670948
C       1.33490410      0.01283245      0.44058611
N       2.47650547     -0.04641996     -0.44775918
O       1.43550699     -0.98556230      1.42232367
H      -3.23835550     -0.19047269      0.23384086
H      -2.31389214     -1.09335908     -0.97760449
H      -2.25399068     -1.57592575      0.72014304
H      -1.03738406      0.59821800      1.26798919
H      -0.95389856      1.00947759     -1.81318908
H      -0.11630393      1.99562447     -0.52157694
H       1.27485188      0.95075088      1.01699597
H       3.26878485      0.45519367     -0.06850688
H       2.25144028      0.32383854     -1.36140362
H       1.70241816     -1.78813192      0.95527488
