18
b3lypvtz=-205206.10295377
C       1.66369402     -1.67653801     -0.11635622
N       1.70810342     -0.24344779      0.14672980
C       0.46828612      0.47191180     -0.18780464
C       0.75267215      1.97742589     -0.19110156
C      -0.59810661      0.12808048      0.81654625
C      -1.85007122     -0.21936803      0.54134364
O      -2.33483324     -0.30738269     -0.74018257
H       1.38912834     -1.93187163     -1.15209647
H       2.63887656     -2.11506037      0.09805848
H       0.93432939     -2.15004192      0.54190344
H       2.47173080      0.16978306     -0.37471296
H       0.10454476      0.18986333     -1.18666338
H       1.10192886      2.30197026      0.79039696
H      -0.14736726      2.53708716     -0.44340433
H       1.52277703      2.22450282     -0.92702598
H      -0.31175979      0.18039970      1.85982490
H      -2.56222163     -0.44084987      1.32860392
H      -3.23360867     -0.64384216     -0.71908128
