23
b3lypvtz=-173371.92329771
C       1.63832352     -1.24965743     -0.01508751
C       0.85642529     -0.00000567     -0.44551742
C       1.63831647      1.24967050     -0.01514588
C      -0.64490482     -0.00000298      0.00021449
C      -1.35615133     -1.24202240     -0.56867810
C      -1.35615051      1.24202117     -0.56866803
C      -0.79739874     -0.00000801      1.53078082
H       1.18109271     -2.17327545     -0.36752870
H       2.65094764     -1.21352203     -0.42122189
H       1.73006841     -1.31254763      1.07124066
H       0.83159978     -0.00003101     -1.54173370
H       1.73007056      1.31260780      1.07117903
H       2.65093695      1.21352547     -0.42128856
H       1.18107636      2.17327005     -0.36762256
H      -1.23161820     -1.30623842     -1.65248517
H      -2.42705938     -1.19429763     -0.36103160
H      -0.98238886     -2.16812961     -0.13216152
H      -1.23163161      1.30623811     -1.65247677
H      -0.98237727      2.16812539     -0.13215474
H      -2.42705595      1.19430203     -0.36100680
H      -0.34458049     -0.88262160      1.98471041
H      -0.34457916      0.88260210      1.98471659
H      -1.85502537     -0.00000875      1.80344795
