15
b3lypvtz=-212089.15305518362
C      -2.20513959      1.02537580      0.27544998
N      -1.60308398     -0.19798378      0.23523796
C      -0.32936974     -0.53843288      0.09232200
N       0.11032721     -1.86588860      0.08923655
N       0.56286323      0.48997111     -0.17053806
C       1.92190769      0.46057860      0.01128829
N       2.66030366      1.40671773     -0.41863271
H      -1.59268920      1.87953837      0.50864803
H      -3.24980368      1.02364766      0.53176400
H      -2.23010756     -0.99039382      0.23029321
H      -0.21427063     -2.44176357      0.84918136
H       0.08124775     -2.35745536     -0.79812470
H       0.19657128      1.30505966     -0.65184789
H       2.25982977     -0.43120379      0.53800585
H       3.63141379      1.23223285     -0.18154038
