11
b3lypvtz=-213024.46591597
C       1.14566572      0.23152373      0.30154642
C       0.24846112     -0.57498967     -0.28843093
N      -1.12817914     -0.41360456     -0.31099175
C      -1.86769780      0.59855352      0.26106450
O      -1.41457857      1.52492504      0.88670402
C       2.53002404     -0.07169271      0.23529682
N       3.66090717     -0.29953473      0.19376661
H       0.84406967      1.11948018      0.83454660
H       0.58123826     -1.45867071     -0.81599835
H      -1.65376531     -1.11787782     -0.80306567
H      -2.94614513      0.46188773      0.07737455
