13
b3lypvtz=-211345.1827990899
C       2.05413008     -0.05068188     -0.11125548
N       0.93860363     -0.91150601      0.21447982
C      -0.25873004     -0.46715845      0.15672474
C      -0.60752250      0.90506896     -0.23056349
N      -1.84005389      1.30974752     -0.27517628
N      -2.92551483      1.63131535     -0.30414266
N      -1.30004779     -1.30502608      0.47145611
H       2.97918325     -0.61517106      0.00087323
H       2.02393335      0.31547026     -1.14636190
H       2.12755535      0.82297896      0.55031454
H       0.13758879      1.63524970     -0.49412508
H      -1.06876205     -2.24439337      0.73667987
H      -2.26036338     -1.02589390      0.44866651
