17
b3lypvtz=-191990.35263079
C      -1.15034195     -2.02342595     -0.09480153
C      -1.56037603     -0.59433359      0.10034226
C      -0.80007372      0.49895824     -0.05352988
C      -1.36057437      1.88975800      0.07502108
N       0.55068351      0.48024478     -0.44513281
C       1.43477950     -0.01775540      0.31672210
N       2.76518143     -0.02984016     -0.00285100
H      -1.83757611     -2.53135303     -0.77760605
H      -1.17385751     -2.58766218      0.84295231
H      -0.14636564     -2.10900165     -0.50861374
H      -2.60515723     -0.42999228      0.34084862
H      -2.42608896      1.87267379      0.30004995
H      -1.20363518      2.44525936     -0.85252276
H      -0.84565317      2.44396456      0.86476587
H       1.21232631     -0.43013662      1.30571265
H       3.00391026      0.17547377     -0.95981105
H       3.36818787     -0.66899265      0.48308297
