14
b3lypvtz=-208686.15850434
C      -2.24784657     -0.71356408      0.33264375
C      -1.61021592      0.37113299     -0.10521268
C      -0.16532756      0.65176348     -0.09628320
C       0.25222043      1.92701643     -0.14266062
C       0.83250660     -0.42971118     -0.03976453
C       0.72009266     -1.70448768     -0.39141490
F       2.05132836      0.00107055      0.37920576
H      -3.32810891     -0.75807249      0.30517755
H      -1.73537170     -1.56750697      0.75084683
H      -2.20883586      1.19910226     -0.47088483
H      -0.46139127      2.73719714     -0.20518578
H       1.29936613      2.18511906     -0.11042992
H       1.57639830     -2.35919133     -0.32816366
H      -0.20820868     -2.09417019     -0.77154577
