19
b3lypvtz=-192743.2011231
C       2.86141165     -0.71813050      0.19730820
C       1.43793912     -0.78850192     -0.35733709
C       0.48251482      0.27708665      0.20647977
N       0.98678913      1.61911479     -0.14300239
C      -0.90383752      0.12107937     -0.34623779
C      -1.97389062     -0.16023535      0.39995736
N      -3.26207229     -0.43036536     -0.05872384
H       3.36792973      0.20179189     -0.10008936
H       2.86594178     -0.77023238      1.28934337
H       3.46480144     -1.54867365     -0.17272433
H       1.46119696     -0.68513998     -1.44551657
H       1.00997419     -1.76939964     -0.13827298
H       0.42894380      0.12494347      1.29681571
H       0.33898699      2.32219192      0.19259920
H       1.87548041      1.79802413      0.31024474
H      -1.00507552      0.23887499     -1.42216705
H      -1.86784593     -0.26696093      1.47506916
H      -4.00308355     -0.14539863      0.56210401
H      -3.44418958     -0.14413587     -1.00915910
