13
b3lypvtz=-213750.15661401
N      -1.25677596     -1.11808549     -0.11560193
C      -0.59261553      0.13950219      0.05906869
C       0.67010004      0.28740882      0.92211324
C       0.77638447      0.31900797     -0.56966919
O       1.25527552     -0.79458185     -1.26392500
C      -1.46795173      1.29205813      0.02269021
N      -2.14362331      2.22459227      0.02068720
H      -1.53252120     -1.53216950      0.76432990
H      -0.66451395     -1.76081909     -0.62494068
H       0.81882161      1.20559628      1.47273435
H       0.98175177     -0.62050219      1.42037251
H       0.96762087      1.27221007     -1.04916070
H       2.18804739     -0.91421762     -1.05869858
