14
b3lypvtz=-227008.65191598
C       3.05104309     -0.42233241     -0.00001178
C       1.76934047      0.39678517      0.00002214
N       0.59731430     -0.47047215      0.00002293
C      -0.55184224      0.05570243      0.00001714
O      -0.81928237      1.37865915      0.00001420
C      -1.75595132     -0.82349396      0.00000053
O      -2.87066942     -0.35331102     -0.00003282
H       3.92538506      0.23042278     -0.00001016
H       3.09974275     -1.06224331      0.88158058
H       3.09971954     -1.06220695     -0.88163185
H       1.73323524      1.05771259     -0.87322322
H       1.73325887      1.05767416      0.87329772
H      -1.78889895      1.46560672     -0.00000098
H      -1.55036001     -1.90392819     -0.00002845
