18
b3lypvtz=-202813.98136118
C       2.48416526     -0.16804173      0.62576598
C       1.48969664     -0.53573001     -0.47684104
N       0.48396885      0.48751618     -0.75103849
C      -0.64526140      0.71894080      0.02448383
N      -1.22570665      1.84685972      0.16765088
C      -1.26865482     -0.49762213      0.67753818
N      -1.80234937     -1.42329341     -0.32987143
H       3.21705794     -0.96550922      0.76504802
H       3.02699899      0.74483120      0.37275620
H       1.97484187     -0.00282585      1.57609156
H       0.98228174     -1.46623546     -0.22472040
H       2.02636965     -0.72471766     -1.40914099
H       0.86220009      1.32890446     -1.16207747
H      -0.71491541      2.59626486     -0.30277105
H      -2.09256507     -0.12771654      1.28204623
H      -0.53799202     -0.95674493      1.36065627
H      -2.14193084     -2.26870032      0.11171366
H      -1.09098043     -1.69310697     -0.99704194
