17
b3lypvtz=-191979.29603309
C      -2.47931616     -0.30113531     -0.38816310
C      -1.37997562     -0.65102357      0.28039299
N      -0.15721839      0.02580903      0.32508615
C      -0.07401541      1.37914677      0.04224634
N       0.95341627      2.10801584     -0.13789223
C       1.04655459     -0.74976595      0.61322054
C       1.69023367     -1.37708069     -0.62359876
H      -3.37794975     -0.88779001     -0.27153231
H      -2.52692492      0.55494748     -1.04525732
H      -1.38352139     -1.55202862      0.88420678
H      -1.05230183      1.85194306      0.01426597
H       1.82315618      1.57893719     -0.12267567
H       1.75519395     -0.09698892      1.12491218
H       0.76965897     -1.53059264      1.32414643
H       2.57495937     -1.94956057     -0.33960413
H       0.99430563     -2.05183666     -1.12316565
H       1.99393184     -0.61565545     -1.34227323
