14
b3lypvtz=-224549.17895973
C      -3.32668801     -0.17202697     -0.00011851
N      -2.10913410     -0.55905927      0.00005574
N      -1.14411257      0.35448823      0.00021358
N       0.14468266     -0.06847400      0.00010274
C       1.05964708      0.80967687     -0.00000984
O       2.36915508      0.50259433     -0.00009127
C       2.69434800     -0.89145863     -0.00002974
H      -3.62620876      0.87870096     -0.00018085
H      -4.09387914     -0.93197353     -0.00018846
H      -1.36593036      1.34848001     -0.00004441
H       0.90646942      1.88845833     -0.00008509
H       2.28872019     -1.38120838      0.88580816
H       3.77958685     -0.93905743     -0.00011978
H       2.28856768     -1.38132153     -0.88573527
