16
b3lypvtz=-204445.09922283
C      -1.72404943      1.54257996      0.00011239
N      -0.61919048      0.91511525      0.00008679
C      -0.55638481     -0.49313814      0.00002148
C      -1.82380958     -1.30625979     -0.00007627
C       0.65627318     -1.07063556      0.00007032
C       2.01758285     -0.44741272      0.00019281
O       2.09938171      0.95441027     -0.00024801
H      -1.70511633      2.62809224      0.00014458
H      -2.70269678      1.06160357      0.00004574
H      -1.59409900     -2.36955044     -0.00011272
H      -2.43736046     -1.09414993      0.87975216
H      -2.43727268     -1.09407236     -0.87994698
H       0.68563689     -2.15549977      0.00008135
H       2.55609586     -0.84794731     -0.87330128
H       2.55568242     -0.84746254      0.87418079
H       1.18480363      1.29151226     -0.00004116
