16
b3lypvtz=-204453.85063311
C       0.82244243      1.89644673      0.10806580
C       0.70644372      0.40145391     -0.01539093
C       1.98605708     -0.35480950      0.07926624
O       2.11533082     -1.55033721     -0.04282772
C      -0.42040141     -0.29722806     -0.20634820
C      -1.81705509      0.21899277     -0.34400074
N      -2.76153610     -0.69320607      0.30757683
H       1.46837824      2.16963598      0.94617036
H       1.27165776      2.33164270     -0.78956030
H      -0.14168835      2.37826422      0.25502415
H       2.87495082      0.27901697      0.28570703
H      -0.32397046     -1.37599152     -0.27845366
H      -2.06639945      0.23293321     -1.41193386
H      -1.88799368      1.25769842      0.00129576
H      -3.71579703     -0.41508067      0.11576674
H      -2.64104732     -0.67084690      1.31325952
