13
b3lypvtz=-213783.9166237
O      -2.35932290      0.51943384      0.47601663
C      -1.64445995     -0.42083273     -0.32756367
C      -0.16302328     -0.30001695     -0.16562346
N       0.70730981     -1.28391962     -0.16885015
C       1.94028295     -0.69043611     -0.02977425
C       1.80943654      0.66689106      0.06862294
N       0.45770316      0.90580739     -0.02462274
H      -0.01101878      1.79310583      0.04286784
H      -2.23961253      0.27712569      1.40023796
H      -1.92888207     -1.45440399     -0.11899789
H      -1.93998155     -0.19721911     -1.35494871
H       2.84568655     -1.27275436      0.00016900
H       2.52608204      1.45721905      0.20236651
