15
b3lypvtz=-214532.74608098
N       2.33792178     -0.51647189     -0.34753589
C       1.13684569     -0.14089430      0.40045023
C       0.62369621      1.27077191      0.00547533
N      -0.83686074      1.20914123     -0.04874248
C      -1.17785403     -0.00706503     -0.01977991
O      -2.47797454     -0.37476049     -0.09954675
C      -0.07113584     -1.03429938      0.06965350
H       3.05832882      0.18718660     -0.22727922
H       2.72738409     -1.38230378      0.00898910
H       1.29140786     -0.15869606      1.48730236
H       0.94011709      2.04070530      0.71159898
H       1.01356697      1.54823518     -0.97918741
H      -2.54415648     -1.33267293     -0.04093212
H       0.06889580     -1.52800008     -0.89689366
H      -0.27058966     -1.80501329      0.81805494
