16
b3lypvtz=-202038.1591007
N      -2.65262735      0.67314694     -0.32474436
C      -2.18873696     -0.44779442      0.05632870
N      -0.87715967     -0.85245624      0.17745922
C       0.21667912     -0.07627503     -0.31367442
C       0.72956829      1.09490179      0.50470063
C       1.53632831     -0.17726416      0.37829755
N       2.74183004     -0.30271672     -0.40235915
H      -1.90823755      1.31794755     -0.58764097
H      -2.88950206     -1.22376822      0.36578125
H      -0.72229309     -1.84250133      0.27795288
H       0.25322491      0.05335757     -1.39380702
H       0.23215940      1.29767255      1.44278596
H       1.06733162      1.96683018     -0.03970398
H       1.54313970     -0.80750704      1.25928517
H       3.51612381      0.16118881      0.05903023
H       2.63651047      0.13026478     -1.31167268
