18
b3lypvtz=-181897.33773657
C       2.67463847     -0.04481653      0.46266636
N       1.60147572      0.31255999     -0.10115379
C       0.48288961     -0.55481060     -0.05767896
C      -0.41303492     -0.59638580     -1.28197627
C      -0.91733412      0.04418869     -0.02381694
C      -1.94766338     -0.71177832      0.78964523
C      -1.07262335      1.54928984      0.01395882
H       2.79138887     -1.00127948      0.98671860
H       3.53685295      0.61626745      0.43561743
H       0.61617665     -1.49134382      0.48431253
H      -0.80705104     -1.55991897     -1.57709342
H      -0.12305541      0.04912035     -2.09935144
H      -1.91759872     -0.40795306      1.83901026
H      -1.78502737     -1.78989335      0.74719967
H      -2.95532100     -0.51346618      0.41500138
H      -0.28075708      2.04716835     -0.54074122
H      -2.03526718      1.84006278     -0.41442246
H      -1.04215769      1.91681665      1.04281123
