15
b3lypvtz=-240236.65737975
C       2.14647065     -0.17240549     -0.12782912
C       0.91936622     -0.54698589      0.70264436
C      -0.42323684     -0.32572190      0.01948596
O      -1.50664215     -0.81593879      0.78398985
O      -0.38715904     -0.94964515     -1.25196351
C      -0.79567611      1.15168538     -0.19084318
O      -0.13399082      2.09321379      0.14498577
H       3.05615306     -0.40540740      0.42677482
H       2.16868803     -0.72644346     -1.06490217
H       2.15660627      0.89225096     -0.35511215
H       0.90352720      0.01719940      1.63568475
H       0.96508607     -1.60916396      0.96507836
H      -1.28902057     -1.70518662      1.08792455
H      -1.28088375     -0.92977763     -1.61579779
H      -1.76614021      1.27815175     -0.71745949
