13
b3lypvtz=-213748.34504436
C      -1.33619954      0.50429994      0.32466433
C      -0.04955276      0.32717054     -0.44033787
C       1.07797579     -0.46440661      0.13454743
N       0.20937585     -1.03369039     -0.91745090
C       2.43159790     -0.09636593     -0.18663672
N       3.51661650      0.18338006     -0.45326345
O      -2.45404986      0.53670050     -0.54697026
H      -1.33063029      1.45875457      0.85224830
H      -1.43198865     -0.29612335      1.06709421
H       0.22057472      1.14595269     -1.09763024
H       0.96077022     -0.92377397      1.10823013
H       0.69150434     -1.02309346     -1.81061602
H      -2.50599424     -0.31880459     -0.98748303
