17
b3lypvtz=-191947.95636509
C       1.61715438      1.18101213     -0.33860538
C       0.59860863      0.14361132      0.02197847
C       0.83444625     -0.94261542      0.98793051
N       0.69947386     -1.30852714     -0.43611577
C      -0.78241239     -1.28429985     -0.69998810
C      -0.88646187      0.21566679     -0.34492249
N      -1.81048667      0.57392428      0.72762715
H       1.54183507      2.04989311      0.32142666
H       2.62557558      0.77659758     -0.24577302
H       1.48476987      1.52498301     -1.36687009
H       1.84586540     -1.05964913      1.35588497
H       0.05333461     -1.22940921      1.68232925
H      -0.98440530     -1.51355513     -1.74427482
H      -1.35124764     -1.95935321     -0.05764359
H      -1.01430946      0.81653781     -1.25343423
H      -2.76912687      0.46329135      0.41417055
H      -1.70261344      1.55189170      0.97627992
