13
b3lypvtz=-190413.79797292
C      -0.05730007     -1.05666085     -0.52046832
C      -1.21148294     -0.13542277     -0.04624326
C      -0.41034530      1.08252378     -0.56462700
C       0.56826998      0.16336308      0.21601568
N      -0.50800823      0.07707180      1.29184613
C       1.95867404      0.39576822      0.52255016
N       3.07482650      0.56701297      0.74636483
H       0.03994144     -2.01165256     -0.00498417
H       0.12813456     -1.14663785     -1.59115696
H      -2.28211863     -0.30683253     -0.10386501
H      -0.62764110      2.03195876     -0.08442566
H      -0.25350596      1.15916559     -1.63731278
H      -0.41944427     -0.81965763      1.77630635
