21
b3lypvtz=-193501.06522961
C      -3.38394742      0.20838391      0.06163083
N      -2.14604469     -0.45753340     -0.31579192
C      -0.95505603      0.15671566      0.25991323
C       0.30823751     -0.57273130     -0.18419882
C       1.60870398      0.05366548      0.32901743
C       2.81616915     -0.83597854      0.00882564
N       1.72898143      1.42461517     -0.19007946
H      -3.53365152      0.29985476      1.14972158
H      -4.23492072     -0.33188678     -0.35481928
H      -3.39658488      1.21753347     -0.35570759
H      -2.19001934     -1.43312121     -0.04502755
H      -0.90843925      1.19388882     -0.07532092
H      -0.98896060      0.19026640      1.36369387
H       0.26529217     -1.61336085      0.15409314
H       0.32802258     -0.60673252     -1.27853381
H       1.53415286      0.14632667      1.41776917
H       3.73956313     -0.38639641      0.38000774
H       2.71960269     -1.82550146      0.46220256
H       2.91972298     -0.97071782     -1.07127857
H       2.55843063      1.87250385      0.18270978
H       1.84155335      1.40317614     -1.19914306
