15
b3lypvtz=-219525.86880908
C       3.20303620     -0.25821823      0.00000929
C       1.96713347      0.24607640      0.00000548
N       0.80457659     -0.50457399     -0.00001722
C      -0.48840295     -0.02112395     -0.00000514
F      -0.51184305      1.32719670     -0.00000552
C      -1.61847953     -0.72608211      0.00000339
C      -2.99529016     -0.13706077      0.00000731
H       4.05411664      0.40372760      0.00002545
H       3.39616739     -1.32346327     -0.00000378
H       1.79861307      1.31247709      0.00001835
H       0.89276880     -1.50705273     -0.00002328
H      -1.51914453     -1.80451586      0.00000632
H      -3.56516108     -0.45328049     -0.87823399
H      -2.96227766      0.95094800      0.00000656
H      -3.56515519     -0.45327938      0.87825276
