14
b3lypvtz=-224608.23870814
C       2.73372811      0.17379081      0.39392670
C       1.29264073      0.01867187      0.03188421
N       0.40930930      0.49545811      0.81839368
N      -0.93407455      0.39672845      0.53336846
C      -1.57990349     -0.38438380     -0.40822063
O      -1.02352518     -1.08697693     -1.23062549
N      -2.96334603     -0.31703437     -0.29855504
H       3.26963912      0.71950214     -0.38781727
H       2.84008437      0.70667471      1.33723791
H       3.21518082     -0.80420373      0.47977545
H       1.03726690     -0.49978502     -0.88508058
H      -1.48541285      0.76512956      1.28846713
H      -3.37754561      0.53801329      0.03649827
H      -3.43404164     -0.72158508     -1.09173514
