14
b3lypvtz=-229592.98639986
C       3.25576217     -0.52592156      0.04488814
N       1.82522034     -0.39994575     -0.15207542
C       1.16532975      0.78785093     -0.01634629
N      -0.09352893      1.02336097      0.03814602
C      -1.02101822     -0.00759931      0.02722652
C      -2.32310268      0.26507214     -0.01811641
F      -3.24244377     -0.72176467     -0.01879358
H       3.73591683      0.42013442     -0.20282908
H       3.52351634     -0.78397064      1.07468922
H       3.66265639     -1.28858138     -0.61934780
H       1.28639212     -1.24816327     -0.11705234
H       1.83586973      1.64433398      0.01814572
H      -0.73983938     -1.06073535      0.06841061
H      -2.75077768      1.25615349     -0.05896031
