16
b3lypvtz=-227748.55538357
C      -3.03491187     -0.16285383     -0.13844894
O      -1.68617177      0.13740438     -0.43073060
C      -0.75991026     -0.53259283      0.42931628
C       0.59371593      0.02010569      0.16167039
O       0.69816169      1.39954076      0.23213960
C       1.68879756     -0.71266272     -0.05110643
N       2.98088341     -0.19045712     -0.14666090
H      -3.65303811      0.41662635     -0.82189887
H      -3.24945944     -1.22857392     -0.28358657
H      -3.29330105      0.10544822      0.89349033
H      -1.06217407     -0.34815733      1.47199806
H      -0.77524439     -1.61437813      0.25571665
H      -0.14494634      1.75809161     -0.07183787
H       1.60985550     -1.79069647     -0.06667457
H       3.57603921     -0.67914583     -0.79812935
H       2.98760300      0.80523615     -0.31843321
