15
b3lypvtz=-242813.68864482
C      -1.40420391      0.52578210     -0.61643788
C      -0.73467040     -0.57498090      0.24204167
C       0.53267297      0.29891054      0.18931838
N      -0.04570952      0.99492002     -0.98657738
C       1.86121822     -0.37661592     -0.01947991
F       2.88979590      0.57048594     -0.00654604
O      -1.20889586     -0.81718435      1.54617889
H      -2.02646910      0.21898530     -1.45885504
H      -1.96574381      1.21129577      0.02673654
H      -0.61077119     -1.50674710     -0.31790492
H       0.57635303      0.91862022      1.09259782
H       0.08357584      1.99810075     -1.00242201
H       1.89029020     -0.88082331     -0.98703992
H       2.05888820     -1.09181594      0.78347448
H      -1.89633056     -1.48893313      1.51491531
