13
b3lypvtz=-242045.30084676
C       0.62364134      1.93781097      0.00001388
C       0.70166625      0.43642605      0.00000691
C      -0.50627435     -0.37971671     -0.00000082
C      -1.73088025      0.13393223     -0.00000396
F      -2.81767866     -0.65421943     -0.00001131
N       1.89079360     -0.04860913      0.00000813
O       1.91326326     -1.45345470      0.00000703
H       1.62822854      2.35325035      0.00001929
H       0.09333801      2.30406026      0.88187520
H       0.09334470      2.30406718     -0.88184859
H      -0.39127172     -1.45363671     -0.00000409
H      -1.99430404      1.18225770     -0.00000199
H       2.85656432     -1.64095306      0.00000832
