15
b3lypvtz=-193607.35405187
C       0.86054972     -0.99750949      0.39890205
C       1.58883145      0.03034186     -0.43521502
C       0.93031991      1.18176927     -0.54254947
C      -0.38158037      1.14167140      0.18578919
O      -1.53902625      0.95741839     -0.68086829
C      -1.61455690     -0.44480782     -0.32620862
C      -0.48053141     -0.31260608      0.70965003
H       0.73165660     -1.94291171     -0.13745493
H       1.41911075     -1.23693574      1.30883408
H       2.55087865     -0.17335998     -0.88828211
H       1.26958574      2.04889516     -1.09262752
H      -0.54436265      1.97885065      0.86778505
H      -1.38705092     -1.09428702     -1.17715120
H      -2.59966048     -0.70092041      0.06953182
H      -0.80416384     -0.43560848      1.73986495
