14
b3lypvtz=-229591.98810759
C       0.01742231      1.79492781     -0.75403371
C       0.03136960      0.42728091     -0.12990976
C      -0.98809137     -0.02556328      0.62347255
N      -1.18067418     -1.23976196      1.25871222
F      -2.07146175      0.76241328      0.81344417
N       1.10890653     -0.37849112     -0.52184449
C       1.70130835     -1.18616411      0.25913364
H      -0.91021137      2.32449132     -0.55373426
H       0.84535539      2.40276673     -0.37982482
H       0.14838418      1.70411549     -1.83414002
H      -0.54682428     -1.96557012      0.95448726
H      -2.14646722     -1.54032730      1.21642475
H       2.51037067     -1.79422335     -0.13695850
H       1.48061311     -1.28589430      1.32600268
