15
b3lypvtz=-214530.31705456
C       2.60593939      0.67562032      0.31649811
O       2.08050887     -0.50468333     -0.31163815
C       0.75644102     -0.63227178     -0.33878730
N      -0.04569105      0.24079935      0.10990830
C      -1.41976940     -0.06313202      0.09086424
C      -2.27710016      1.13725084     -0.21607963
N      -1.83032516     -1.23711958      0.36490264
H       3.68593255      0.58400539      0.25035521
H       2.26098108      1.56787517     -0.20432281
H       2.28571810      0.72756258      1.35615171
H       0.45607608     -1.57210635     -0.79824521
H      -2.00999279      1.55283968     -1.18981364
H      -2.09192643      1.91948470      0.52189144
H      -3.33580728      0.88402117     -0.21367063
H      -2.84682180     -1.27822111      0.32943972
