14
b3lypvtz=-227007.29562328
C      -3.08934687     -0.26752793      0.11267268
N      -1.76703914      0.27193524     -0.12875116
C      -0.64044169     -0.47665333     -0.06904557
C       0.61374529      0.03731330     -0.02496943
O       0.80156439      1.39320757      0.00418797
C       1.78815994     -0.78333743     -0.00023548
O       2.91230195     -0.29500354      0.05061485
H      -3.83757765      0.37640216     -0.34750356
H      -3.17115028     -1.25375763     -0.34486282
H      -3.32304140     -0.36307798      1.17892831
H      -1.63959833      1.26559200     -0.01886158
H      -0.76413436     -1.55124271     -0.08657263
H       1.76605403      1.51102868      0.04313168
H       1.62869013     -1.87584741     -0.02455726
