15
b3lypvtz=-214526.5874771
C       1.40731153      1.37788549      0.53152809
C       1.03381600      0.20941329     -0.39502063
N       2.08330373     -0.79672528     -0.37325730
C      -0.35050017     -0.30640607     -0.00870120
O      -0.52080105     -1.35691778      0.56800070
C      -1.54920827      0.56015999     -0.36700288
N      -2.73783896      0.24900479     -0.07267163
H       0.65798750      2.16999517      0.52033045
H       1.50904397      1.02390207      1.55918862
H       2.36214387      1.79370947      0.21510180
H       0.95790764      0.60033638     -1.41619703
H       1.86711163     -1.54223369     -1.02569919
H       2.10943865     -1.23585835      0.54154577
H      -1.36205228      1.48503469     -0.91350531
H      -2.72873979     -0.64563216      0.43246175
