13
b3lypvtz=-239674.03593716
N      -2.67070499      0.39848550     -0.02311454
C      -1.43070999      0.70462459     -0.07039279
C      -0.29891211     -0.17502035      0.00917807
F      -0.59776688     -1.51661032      0.08045417
C       1.02215161      0.13916781     -0.00032668
N       2.00408371     -0.82186998     -0.13633023
N       1.52214762      1.42807577      0.13427605
H      -2.77839870     -0.60991526      0.09953875
H      -1.18829217      1.76121028     -0.20368989
H       2.81401363     -0.67701256      0.44845148
H       1.66350462     -1.77012668     -0.11794550
H       2.22519595      1.66504130     -0.55260845
H       0.82995671      2.15172390      0.23661057
