13
b3lypvtz=-213721.50123073
C      -2.21119132     -1.09404427     -1.36221719
C      -1.06096992     -0.43023804     -0.77319139
C      -0.09991957      0.10799421     -0.29065152
C       1.03411001      0.74217403      0.30115908
N       0.97290806      2.12814309      0.44550213
N       2.11294454      0.14408083      0.66288396
O       2.09183624     -1.22751129      0.34277427
H      -1.95947943     -2.11380194     -1.65892453
H      -3.03911386     -1.14514803     -0.65186454
H      -2.56167781     -0.55977460     -2.24747403
H       1.71164579      2.49190021      1.03088268
H       0.06177270      2.47552297      0.70257727
H       2.94713458     -1.51929716      0.67174382
