17
b3lypvtz=-191960.79153172
N       3.18526611     -0.09034785     -0.30160368
C       1.95986540      0.01109923      0.35686691
C       0.75004782      0.02040055     -0.20786100
C      -0.52603332      0.01789683      0.56167628
C      -1.57415008     -1.05492075      0.13036875
N      -2.28771133     -0.01892619     -0.64977037
C      -1.59476185      1.05448237      0.09705800
H       3.15308519      0.11215286     -1.28987865
H       3.94893064      0.39020766      0.14774019
H       2.05005007      0.01763609      1.43863506
H       0.66432817      0.01211252     -1.29200953
H      -0.31716332      0.03536147      1.63111626
H      -2.13552429     -1.44750484      0.98664190
H      -1.20243259     -1.89329286     -0.46215533
H      -3.29668703     -0.02757021     -0.57292783
H      -1.23948283      1.88118493     -0.52184788
H      -2.16399377      1.46328220      0.94049091
