18
b3lypvtz=-205216.35758809
C      -3.48685186      0.11713771     -0.06073436
C      -2.13803659     -0.58463351      0.01101995
N      -1.04112794      0.37787795     -0.03830516
C       0.27926325     -0.22937322      0.07573557
C       1.36629125      0.83092813     -0.01885756
C       2.77137286      0.29469621     -0.04048148
O       3.06727285     -0.87302986     -0.02561249
H      -4.30219937     -0.60737891     -0.06015177
H      -3.63267859      0.77784084      0.79769088
H      -3.55810130      0.72080495     -0.96596166
H      -2.02667565     -1.25788868     -0.84353799
H      -2.09787130     -1.21957303      0.91173542
H      -1.16740504      1.06326944      0.69931793
H       0.41139226     -0.80965592      1.00177892
H       0.40182169     -0.94079870     -0.74351427
H       1.22786803      1.43784057     -0.92160661
H       1.30453262      1.54554054      0.81234255
H       3.56262184      1.07341150     -0.07937887
