11
b3lypvtz=-236294.4756084
C      -2.41080630      0.36928487      0.00001890
O      -1.41927038     -0.66978568     -0.00006502
C      -0.15013377     -0.28826702     -0.00003933
N       0.81251674     -1.17712828     -0.00007453
O       1.96819444     -0.36446915      0.00026699
C       1.54409662      0.89276621     -0.00004541
N       0.25868106      1.02548077      0.00009792
H      -2.31813088      0.99213141     -0.88881842
H      -3.36500630     -0.14864901     -0.00008725
H      -2.31821693      0.99191856      0.88901484
H       2.29123070      1.67054432     -0.00023869
