14
b3lypvtz=-201265.91860782
C      -3.52839068     -0.23101651     -0.00001382
C      -2.17067275      0.37822589      0.00001144
N      -1.10680088     -0.32504493      0.00002370
C       0.10928051      0.33928882      0.00000565
C       1.27275644     -0.32890307      0.00001272
N       2.46099547      0.40490650      0.00007145
N       3.48734888     -0.31029224      0.00007383
H      -4.09381568      0.10033171     -0.87596987
H      -3.46236831     -1.31652750     -0.00001734
H      -4.09383530      0.10032596      0.87593127
H      -2.12082629      1.47600183      0.00001029
H       0.12887240      1.43021629     -0.00000104
H       1.32386638     -1.41307904     -0.00000079
H       4.29030980      0.33242228     -0.00006249
