16
b3lypvtz=-202036.74122422
C       1.88763224     -1.27252889     -0.54461267
C       1.04642124     -0.75319878      0.63496068
C      -0.20801122     -0.03068175      0.20910873
C      -1.46870893     -0.81146951      0.10084136
N      -2.61707821     -0.39329450     -0.23862512
N      -0.28369251      1.21909722     -0.07263488
N       0.80732624      2.01644150      0.04840176
H       2.78564374     -1.77791502     -0.18689752
H       2.19973278     -0.46492459     -1.20918494
H       1.31897405     -1.98309179     -1.14515800
H       0.76282268     -1.59846786      1.26520083
H       1.65044439     -0.09541626      1.26575217
H      -1.37127179     -1.87066180      0.35122687
H      -2.56415760      0.60920551     -0.44221420
H       1.71626093      1.59448658     -0.09740202
H       0.68423199      2.87770895     -0.45847804
