14
b3lypvtz=-203686.94113441
N      -2.52192886     -0.09481607     -0.42895154
C      -1.52905634     -0.62178171      0.15081791
C      -0.26181303      0.04008810      0.61413550
C       0.14739087      1.45650197      0.12052598
C       1.55554199      0.92866293     -0.28414653
C       1.06757067     -0.48901315      0.01769548
O       1.50312462     -1.58411759     -0.17370756
H      -2.38937856      0.91015237     -0.56105053
H      -1.56687711     -1.69598098      0.34217198
H      -0.20288932     -0.05386124      1.70435282
H      -0.43285987      1.78857539     -0.73913678
H       0.13372285      2.23830137      0.87516807
H       2.36180125      1.23074300      0.38646800
H       1.87874583      1.09690261     -1.31127380
