20
b3lypvtz=-182658.63349786
C       2.91717537     -0.16031462     -0.02194710
N       1.56209090      0.18160754      0.38212920
C       0.54230964     -0.25236433     -0.56580453
C      -0.85211308      0.12545968     -0.10694531
C      -1.10557524      1.61347723      0.02103254
C      -1.53086352     -0.80385799      0.87137060
C      -1.98728688     -0.74887986     -0.56601045
H       3.61902357      0.13162296      0.75972968
H       3.06662572     -1.23126758     -0.23594532
H       3.18079526      0.39356151     -0.92568934
H       1.36136556     -0.21620299      1.29199236
H       0.75310516      0.23357201     -1.52503075
H       0.58027471     -1.33931489     -0.75461121
H      -2.11158140      1.81130735      0.39427232
H      -1.00635181      2.10774114     -0.94921572
H      -0.38781793      2.07162400      0.70170802
H      -1.00079373     -1.69049343      1.19515561
H      -2.17224040     -0.37050663      1.62693812
H      -2.93526422     -0.27343402     -0.77955483
H      -1.76280767     -1.59658107     -1.19996390
