14
b3lypvtz=-203644.01562721
C      -1.22446643      0.63084139     -0.88960156
C      -0.53245486     -0.36689192      0.07636707
C      -0.80613754      0.74384426      1.12467072
N      -0.51248086      1.70471376     -0.04398519
C       0.87184228      1.29590369     -0.30844756
C       0.94020020     -0.03713211     -0.24802083
O       1.74151494      2.29309842     -0.54451212
H      -2.30473321      0.72850620     -0.77749893
H      -0.93486034      0.62150169     -1.93838652
H      -0.82562004     -1.40924023      0.19571819
H      -0.12376157      0.84075205      1.96660586
H      -1.84402490      0.85281007      1.44099453
H       1.76093232     -0.72136283     -0.38004052
H       2.61444998      1.91585557     -0.70436314
