16
b3lypvtz=-204472.96072505
C       3.37146417     -0.25333935      0.59401766
C       2.39365233      0.39962351     -0.39233570
C       1.05646596     -0.27765870     -0.43219717
C      -0.09217107      0.31708492     -0.11714986
N      -1.34765865     -0.29050358     -0.13718226
C      -2.52289578      0.32355322      0.19082533
O      -3.60546932     -0.21678026      0.17036782
H       2.98862414     -0.20344622      1.61440270
H       4.34235358      0.24427724      0.56938200
H       3.53092325     -1.30566520      0.35038536
H       2.84089858      0.38123904     -1.39208817
H       2.26104559      1.45379830     -0.13604618
H       1.04682286     -1.32384166     -0.72798209
H      -0.11923280      1.35760767      0.18457583
H      -1.42222201     -1.26053932     -0.41058007
H      -2.37946684      1.37881339      0.48105679
