15
b3lypvtz=-216920.18325259
C       2.06569255     -0.94431642     -0.41756289
C       1.25661646      0.32395595     -0.27890665
C       0.79597092      0.83509452      1.04930876
C      -0.23326109      0.36482040      0.02675740
O      -0.97835597      1.34090236     -0.62879621
C      -0.99153698     -0.86252760      0.31555795
O      -2.15673056     -0.97983937      0.00023648
H       1.90858351     -1.41378663     -1.39013813
H       3.13001401     -0.71819805     -0.32437846
H       1.82318590     -1.67657852      0.35269604
H       1.50362622      1.09808562     -0.99593987
H       0.79028804      1.90117000      1.22616501
H       0.96535383      0.21980127      1.92417726
H      -1.87036325      0.96973259     -0.71758410
H      -0.45866058     -1.66807211      0.84876541
