14
b3lypvtz=-203628.75681819
C       2.41125626     -0.61580623     -0.31623277
N       1.15840229     -0.76671613     -0.28540787
C       0.34608309      0.40825316     -0.17899833
C      -0.89975958      0.37808454      0.75290093
C      -1.59997908     -0.61953064     -0.19203634
C      -0.95314998      0.50168438     -1.03041621
O      -1.45500108      1.49554919     -0.04983730
H       3.05367393     -1.48956534     -0.39651618
H       2.90187967      0.36392114     -0.26482587
H       0.89948426      1.35189512     -0.13017729
H      -0.93883271      0.46549176      1.83613309
H      -1.18210366     -1.61865692     -0.27382943
H      -2.68605346     -0.59173511     -0.15748309
H      -1.05589995      0.73713110     -2.08711592
