12
b3lypvtz=-202941.73162868
C       1.76581652     -1.48860530      0.00000353
C       0.69307687     -0.43528258     -0.00000636
C       1.16660077      0.91892230     -0.00000679
N       1.61138933      1.98265697     -0.00000779
C      -0.62254118     -0.70987812     -0.00001286
C      -1.68689504      0.30574009     -0.00000757
O      -2.86136437      0.01652335      0.00001226
H       2.40671618     -1.38115465     -0.87732396
H       2.40670354     -1.38115033      0.87733977
H       1.32812418     -2.48442301      0.00000295
H      -0.95605497     -1.74041604     -0.00001587
H      -1.35563282      1.36002232      0.00002469
