19
b3lypvtz=-192738.35366889
C      -1.97894369     -1.41719336      0.52314311
C      -1.33135820     -0.63639671     -0.63027046
C      -0.58954755      0.59357333     -0.17952453
N      -1.44840141      1.63566694      0.26917751
C       0.74563829      0.70140399     -0.11903678
N       1.70666848     -0.26168089     -0.47460638
C       2.86823097     -0.36971659      0.39883018
H      -2.57283304     -2.25295342      0.14795114
H      -1.21877629     -1.81644596      1.19668050
H      -2.62966327     -0.76564488      1.10522944
H      -0.67211148     -1.29340837     -1.20052198
H      -2.11427539     -0.33301181     -1.33580281
H      -2.12074803      1.91309453     -0.43751537
H      -0.93934002      2.45574656      0.57082602
H       1.18543131      1.63963834      0.20528742
H       1.30078878     -1.16570029     -0.66409278
H       3.56964914     -1.09158965     -0.01984298
H       3.37742251      0.59477471      0.44541490
H       2.62781089     -0.67127348      1.42841285
