17
b3lypvtz=-194386.66856572
C       1.91350955     -0.36826417     -0.19730989
C       0.64461559      0.15163265      0.49217065
C      -0.19191923     -0.95959940      1.07778369
C      -1.34550707     -1.11755922      0.43895486
C      -1.51617026     -0.12295529     -0.67769283
C      -0.34504303      0.86046085     -0.48005102
O      -0.89841816      2.05119827      0.08581473
H       2.50125718      0.45245486     -0.61468714
H       1.66446128     -1.05432212     -1.00935155
H       2.54860015     -0.90906319      0.50649566
H       0.94151802      0.86641807      1.26779975
H       0.14784339     -1.56523204      1.90836210
H      -2.08543760     -1.87297940      0.66849922
H      -2.46074274      0.42224372     -0.62796869
H      -1.48161833     -0.60969545     -1.65719325
H       0.14557670      1.10171817     -1.42890391
H      -0.18242543      2.67344370      0.24727762
