12
b3lypvtz=-254552.65180899
C      -2.08918071      0.08843825     -0.33120036
C      -0.67920902      0.56157447     -0.17321763
C       0.29924573     -0.15065569      0.35021414
F       0.15321572     -1.39699061      0.81253957
O       1.57305212      0.31845355      0.57127792
C       2.57893617     -0.18790214     -0.21006166
O       2.44409710     -0.96483527     -1.10003580
H      -2.21732327     -0.92410502      0.04592853
H      -2.38554639      0.10003373     -1.38259469
H      -2.78119349      0.74330494      0.20368564
H      -0.41779944      1.55756745     -0.50356756
H       3.52180547      0.25521634      0.12873189
