19
b3lypvtz=-195162.49204985
C       2.84302116      0.33156878     -0.01362354
C       1.52907315     -0.29491275      0.43261505
C       0.33056398      0.09200510     -0.41681925
O       0.44895049      0.73858061     -1.43360006
C      -1.04257183     -0.35596736      0.08814677
C      -1.65958534      0.79305037      0.90729060
C      -1.95416172     -0.76893679     -1.06821623
H       2.79750348      1.41902908      0.04637596
H       3.06479912      0.07460416     -1.04859662
H       3.66701417     -0.01232591      0.61254639
H       1.30113396     -0.04849732      1.47509045
H       1.58829886     -1.38979397      0.41145028
H      -0.89565074     -1.20786163      0.75859652
H      -1.02349513      1.08630784      1.74419344
H      -1.81388950      1.66852134      0.27501443
H      -2.62588198      0.49042526      1.31316163
H      -1.54113284     -1.61517247     -1.61949026
H      -2.93823610     -1.05640726     -0.69439486
H      -2.07575320      0.05578291     -1.76974069
