19
b3lypvtz=-216036.25517852
C      -3.13053069     -0.22482538      0.05073533
O      -1.85931477      0.24059431     -0.34835532
C      -0.79125997     -0.53514848      0.17134247
C       0.52328994      0.09025428     -0.26279724
N       0.62231922      1.42961067      0.32344891
C       1.70567767     -0.77623535      0.19423295
N       3.03920192     -0.27070752     -0.12479859
H      -3.24344633     -0.20400328      1.14169248
H      -3.87387816      0.43387348     -0.39512792
H      -3.31038336     -1.25005119     -0.29676623
H      -0.84338052     -0.55843930      1.26848393
H      -0.86004940     -1.56720092     -0.19867772
H       0.52168289      0.11296745     -1.36461709
H       1.37514356      1.94880191     -0.11173966
H      -0.23202058      1.93895585      0.12867240
H       1.65212839     -0.89689478      1.27877048
H       1.60633398     -1.77138491     -0.24807430
H       3.22080497      0.59589239      0.36614356
H       3.13644125     -0.08949324     -1.11732944
