15
b3lypvtz=-235384.03396638
N       3.23569079      0.20394783      0.22346684
N       2.17971747     -0.41404566     -0.40457184
N       1.07697203     -0.01684237     -0.00409083
N       0.02031303     -0.65369718     -0.62160604
C      -1.18091983     -0.73675039      0.21262866
C      -1.92083410      0.59536558      0.22034012
O      -2.30956319      0.98486694     -1.08638431
H       2.98933992      1.10555793      0.62286338
H       4.02074653      0.25185981     -0.40847123
H       0.30832895     -1.53274467     -1.04118142
H      -0.94847454     -1.04989096      1.23660530
H      -1.81991905     -1.49449327     -0.24218725
H      -1.29237451      1.35988196      0.69045051
H      -2.83420134      0.50200331      0.80942950
H      -1.52482217      0.89478113     -1.64109139
