13
b3lypvtz=-213768.61076402
N       2.70427968     -0.94762776     -0.01990832
C       2.40920132      0.36952975      0.01283534
C       1.14835049      0.88550632      0.00672459
N       0.07997276      0.03724317      0.01109303
C      -1.12824884      0.47877283     -0.00677921
C      -2.23872815     -0.47402266      0.00562967
O      -3.40861539     -0.15347005     -0.00844257
H       1.94558320     -1.60528189      0.05445870
H       3.63613560     -1.27002092      0.15780678
H       3.25842497      1.04020028      0.02162270
H       1.01126526      1.96365831     -0.00272356
H      -1.38060746      1.54289912     -0.03239939
H      -1.92089044     -1.53498549      0.02895323
