18
b3lypvtz=-205192.4607974
C      -3.02450870     -0.49779650      0.15374915
C      -1.58921760     -0.36773441     -0.33502785
N      -0.96305989      0.83862487      0.20716941
C       0.40520386      1.07106843     -0.23890792
C       1.39203360      0.19147404      0.48509544
C       2.68943523     -0.15631887     -0.09686991
O       1.63180250     -1.11744200     -0.05601638
H      -3.48428138     -1.40805133     -0.23336647
H      -3.63360801      0.34688923     -0.17910976
H      -3.05879179     -0.52793911      1.24327509
H      -1.56749896     -0.38156860     -1.43725985
H      -1.00611048     -1.22953849     -0.00828739
H      -1.53442752      1.64365322     -0.01809598
H       0.54008312      0.92119161     -1.32270982
H       0.65826710      2.11169772     -0.01740832
H       1.29937888      0.20468178      1.56788445
H       2.94559756      0.20591240     -1.08810475
H       3.53303548     -0.36439497      0.55340886
