16
b3lypvtz=-202028.08146797863
C       2.33289007     -0.70292123     -0.02310943
C       1.13446423     -0.88340157      0.54707862
C      -0.12927030     -0.33643062      0.09270111
N      -0.20203725      0.49778231     -1.07260543
N       0.23293678      1.86366666     -0.88436276
C      -1.28531175     -0.57764557      0.75317745
N      -2.50198837     -0.04930808      0.39633530
H      -3.32130031     -0.55730930      0.68358680
H       0.97640592      1.89399728     -0.18950283
H      -2.52913821      0.29960722     -0.55231125
H       3.21954514     -1.16834121      0.38270648
H       2.46726721     -0.09113626     -0.90663950
H       1.07703027     -1.50577617      1.43616196
H       0.36002125      0.12123413     -1.82410795
H      -0.55167650      2.37229433     -0.49469524
H      -1.27983816     -1.17631190      1.65558669
