20
b3lypvtz=-182673.22850854
C       3.65803480      0.20519865      0.21277082
C       2.31688608      0.05811927     -0.44000577
C       1.16020260     -0.00171551      0.22541539
N      -0.11736765     -0.02294499     -0.32524487
C      -1.15724917     -0.81013401      0.32856978
C      -2.54947731     -0.45268051     -0.19033654
C      -2.97909220      0.98023640      0.12078915
H       3.57186771      0.19559815      1.30086879
H       4.14973482      1.14191956     -0.06916021
H       4.33848441     -0.60253261     -0.07332780
H       2.29993950      0.02568039     -1.52667222
H       1.16005557      0.01686380      1.31175598
H      -0.11429140     -0.13712394     -1.32997244
H      -0.98927101     -1.89049039      0.20955587
H      -1.10111405     -0.60190551      1.40052744
H      -2.57849452     -0.62242689     -1.27221458
H      -3.26353154     -1.15868259      0.24189576
H      -3.02975305      1.14671671      1.19927891
H      -3.96506810      1.19455180     -0.29433522
H      -2.27170648      1.69920025     -0.29172124
