15
b3lypvtz=-191192.91721838
C      -2.82054373      0.10933064      0.20890223
C      -1.85718004     -0.60365848     -0.36147588
C      -0.45585183     -0.15102267     -0.52748041
N      -0.05634059      1.11272926      0.08074672
C       0.52060782     -0.11295255      0.62655934
C       1.94004848     -0.49700078      0.40108478
N       2.79993085      0.03721409     -0.36187609
H      -3.82335947     -0.28277656      0.30926298
H      -2.62580860      1.10391442      0.58774932
H      -2.06842531     -1.59690961     -0.74517094
H       0.00428691     -0.41279849     -1.47613068
H       0.61252598      1.60618250     -0.50339214
H       0.12659749     -0.38654629      1.59856718
H       2.26322069     -1.36696205      0.97664678
H       2.42461135      0.85371556     -0.85299618
