17
b3lypvtz=-171089.93505203
C       2.48843004     -0.73182613      0.00000602
C       1.25235120     -0.22679221     -0.00000298
C       0.00381047     -0.97694343     -0.00000780
C      -1.07298895     -0.17845356     -0.00000027
C      -2.50595306     -0.59139494      0.00000133
C      -0.66986778      1.27781570      0.00001365
C       0.87816631      1.25095643     -0.00001013
H       3.36396738     -0.09562439      0.00001097
H       2.65927587     -1.80057537      0.00000853
H      -0.03037175     -2.05889493     -0.00001400
H      -3.02846710     -0.19468904      0.87614777
H      -3.02847810     -0.19465880     -0.87612472
H      -2.61582560     -1.67550710     -0.00001651
H      -1.07733932      1.79635606     -0.87371153
H      -1.07731150      1.79632767      0.87376902
H       1.28975446      1.75443452     -0.87562332
H       1.28978744      1.75445753      0.87557397
