17
b3lypvtz=-191948.86910899
C       2.42653028      0.72468319      0.26912272
N       2.14497512     -0.44099415     -0.16956793
N       0.85639838     -0.81216130     -0.34905544
C      -0.25480907     -0.15862512      0.30586473
C      -1.59604807     -0.92097492      0.24579955
C      -2.31570818      0.43337002      0.01570618
C      -0.95161862      1.04832469     -0.38633166
H       3.47527923      0.97211968      0.36386375
H       1.69305502      1.48350995      0.53236067
H       0.78376174     -1.81402213     -0.42141274
H       0.01231917      0.09780100      1.33958397
H      -1.64125135     -1.54975531     -0.64543435
H      -1.87616446     -1.51608318      1.11380900
H      -3.11283492      0.45289791     -0.72496507
H      -2.69714504      0.85358648      0.94588894
H      -0.71758509      2.04682616     -0.01884083
H      -0.78771812      1.01702902     -1.46308949
