14
b3lypvtz=-201283.61148217
N      -2.35573799      0.81938768     -2.52027724
C      -2.02920696      0.07876926     -1.70237391
C      -1.60203932     -0.83622847     -0.64725861
C      -0.71478353     -0.15488962      0.42136042
C       0.57333237      0.37758958     -0.12545104
N       1.68237666     -0.12372142      0.24294316
N       2.83587830      0.33053882     -0.33641597
H      -2.49529980     -1.25228615     -0.17656416
H      -1.06108135     -1.66605218     -1.10627123
H      -1.28927207      0.65235625      0.88386932
H      -0.48434270     -0.88785545      1.19363567
H       0.52463739      1.19191725     -0.85635359
H       3.61935650      0.19264853      0.28224896
H       2.79618248      1.27792591     -0.70319178
