17
b3lypvtz=-194383.69145998
C      -2.83643375      0.48133023      0.25785689
C      -1.91259865     -0.25131731     -0.35100816
C      -0.68866094     -0.82666781      0.29901664
C       0.65281347     -0.43586835     -0.37628286
C       1.82276982     -1.27291433      0.13044925
C       0.90399130      1.04992803     -0.22639402
O       1.90981518      1.53494067      0.22722890
H      -3.70800423      0.84678712     -0.26878841
H      -2.75607350      0.74048132      1.30726799
H      -2.03875440     -0.48382929     -1.40586070
H      -0.75297386     -1.91903675      0.26366595
H      -0.66013365     -0.55187784      1.35667758
H       0.52642154     -0.59889986     -1.45603626
H       1.65464042     -2.33059828     -0.07585436
H       1.95172666     -1.15007453      1.20657766
H       2.75560148     -0.97009129     -0.34285621
H       0.07491711      1.69977227     -0.57051290
