12
b3lypvtz=-249744.18847752
C      -2.49323476     -0.21172694      0.15535717
N      -1.33710181      0.27276665      0.18680212
N      -0.32686189     -0.64808747     -0.08205091
C       0.84006624     -0.08341443     -0.11116782
N       1.95658662     -0.88767427     -0.20739447
N       1.08053560      1.26528314     -0.06173626
F      -3.54367639      0.57994389      0.40657076
H      -2.77081194     -1.23828608     -0.05808879
H       2.68931993     -0.53711182     -0.80531705
H       1.72215750     -1.85274586     -0.38342361
H       1.92584999      1.54563908      0.40864718
H       0.25717091      1.79541411      0.18627362
