14
b3lypvtz=-203666.69950484
O       3.25941165     -1.40875169     -0.35317640
C       2.54719430     -0.43885238     -0.49018683
C       1.12601290     -0.39998317     -0.15038863
C       0.41750096      0.72102852     -0.33694240
N      -0.95057128      0.96925537     -0.07820629
C      -1.56531410      0.29223557      1.08796828
C      -1.90280817     -0.14936494     -0.27329156
H       2.95355429      0.51033142     -0.89775258
H       0.70288938     -1.31373782      0.24973644
H       0.92365428      1.59242630     -0.74387583
H      -2.25050368      0.91634660      1.64649846
H      -0.92533252     -0.34471431      1.68586223
H      -1.49655315     -1.09211401     -0.61812719
H      -2.83923485      0.14599454     -0.72801771
