16
b3lypvtz=-181147.82825982
C      -3.64482234     -0.27560015      0.00017190
C      -2.46887717      0.35313242     -0.00003002
N      -1.26494858     -0.34154881     -0.00011847
C      -0.17725874      0.33497669     -0.00018944
C       1.12152445     -0.30091575     -0.00019971
C       2.27024076      0.38556720     -0.00007180
C       3.63556986     -0.21564333      0.00009929
H      -4.57277542      0.27768378      0.00026717
H      -3.68916411     -1.35602102      0.00024966
H      -2.42708651      1.44531434     -0.00011575
H      -0.18862065      1.43423323     -0.00022410
H       1.12043766     -1.38555614     -0.00027217
H       2.22217841      1.47182673     -0.00003923
H       4.20520921      0.10906082      0.87581300
H       3.59760500     -1.30469234     -0.00010383
H       4.20565218      0.10939233     -0.87519251
