14
b3lypvtz=-224570.35040147
N      -2.74700813     -0.72961552     -0.03215535
C      -1.54429767     -1.02524591     -0.30208496
C      -0.34068471     -0.17197963     -0.12150624
C       1.01431228     -0.69885346     -0.53110710
O       1.88130818     -0.92212272      0.57807122
N      -0.51185279      0.97629743      0.42564457
N       0.57518625      1.76931453      0.65871101
H      -2.79068389      0.22017782      0.34808613
H      -1.34504609     -2.01486328     -0.71734353
H       1.47894846     -0.01578601     -1.25954793
H       0.90705650     -1.65959005     -1.03189916
H       1.81682370     -0.16947237      1.17696633
H       1.32248445      1.72408152     -0.02972834
H       0.28345346      2.71765765      0.83789334
