12
b3lypvtz=-228845.57256003
F       2.44067313     -0.49034611     -0.00017853
C       1.64887401      0.65580917      0.00004519
C       0.20359642      0.27833052      0.00006413
C      -0.89604386      1.11045674     -0.00004174
N      -1.98358799      0.30162807      0.00008410
H      -2.95032204      0.57499204     -0.00013656
N      -1.67124758     -1.00242418      0.00018192
C      -0.34329502     -1.02315075      0.00018656
H       1.91824656      1.23524845      0.88684274
H       1.91811558      1.23550752     -0.88662171
H      -0.98621020      2.18345707     -0.00020283
H       0.18647600     -1.96008153     -0.00004326
