14
b3lypvtz=-224547.8376394
C      -1.56798988      1.04911254      0.08233767
C      -0.80992910     -0.23228161     -0.10834452
C      -1.36296127     -1.44357400     -0.06184518
N       0.55468491     -0.00663391     -0.34207925
N       1.40656215     -1.01532176     -0.53768148
N       2.60203920     -0.79203184     -0.74052984
O       2.89912828      0.62238307     -0.73273642
H      -2.62046491      0.84448396      0.26053465
H      -1.17913276      1.61391738      0.93416943
H      -1.48758534      1.68965496     -0.80029312
H      -0.78220578     -2.34142780     -0.20418023
H      -2.42148563     -1.53955287      0.12295612
H       0.92298515      0.93181466     -0.36721310
H       3.84635497      0.61945724     -0.90117262
