12
b3lypvtz=-202905.37896319
C       2.67501480     -0.10263686     -0.32874341
C       1.55368420     -0.12087349      0.09492621
C       0.18308132     -0.17913467      0.59174187
C      -0.81980592     -0.80576239     -0.42517472
O      -1.85235705      0.20295517     -0.56104723
C      -1.44731629      1.24439675      0.20353640
N      -0.37541066      1.17071473      0.86708876
H       3.67006953     -0.07294420     -0.69689576
H       0.18190154     -0.73746982      1.53145553
H      -0.37596282     -0.97782111     -1.40311647
H      -1.28217188     -1.72043504     -0.06052424
H      -2.11072678      2.09901093      0.18675305
