16
b3lypvtz=-227770.19261932
C      -2.16399662     -0.87202646      0.20547335
C      -1.41006251      0.44844229      0.35721358
C      -0.14682513      0.55916260     -0.51049526
O       0.39126793      1.87551674     -0.48399033
C       0.90451115     -0.46017641     -0.10953833
N       1.23423375     -1.53877879     -0.67797661
O       1.51375795     -0.09387096      1.04756344
H      -3.06319423     -0.87408027      0.82214259
H      -2.47494621     -1.03326788     -0.82937963
H      -1.55440057     -1.72524841      0.50620471
H      -1.12886093      0.60528413      1.40181295
H      -2.05085722      1.28499693      0.07218133
H      -0.40936858      0.37120027     -1.55295070
H       0.82106657      2.00147310      0.36972016
H       0.71233407     -1.68298498     -1.53699430
H       2.17616560     -0.77246391      1.24198005
