13
b3lypvtz=-213754.96673768
C       0.47108095      1.04913559      0.30121249
C      -0.45847077     -0.05880063      0.81365979
O       0.67628457     -0.99904085      0.85410243
C       1.54427452     -0.00834522      0.40612501
N       2.77463675     -0.05059588      0.20041468
C      -1.53760447     -0.56950163     -0.09304578
N      -2.04281564      0.16551566     -0.98798794
H       0.25202709      1.38692951     -0.70841296
H       0.61055927      1.90364022      0.95847553
H      -0.84747375      0.08336915      1.82464176
H       3.16417622     -0.97114018      0.39925846
H      -1.83570626     -1.60640911      0.09675461
H      -2.77096849     -0.32475664     -1.50640720
