20
b3lypvtz=-182678.42103648
C      -2.39251819     -0.00000040     -0.02044055
N      -0.96934612     -0.00000024     -0.30332519
C      -0.31591318     -1.20808717      0.19096100
C       1.15223392     -1.25582275     -0.22663556
C       1.89362655     -0.00000004      0.23727391
C       1.15223371      1.25582257     -0.22663549
C      -0.31591335      1.20808671      0.19096115
H      -2.85847842      0.88316675     -0.46031911
H      -2.61817272     -0.00000070      1.06104453
H      -2.85847835     -0.88316735     -0.46031959
H      -0.84965713     -2.07305393     -0.20862204
H      -0.38460872     -1.27159388      1.29483734
H       1.61852484     -2.15447247      0.18403574
H       1.20453009     -1.33171166     -1.31618293
H       2.92072073      0.00000007     -0.13416627
H       1.95504532     -0.00000006      1.33098638
H       1.61852454      2.15447234      0.18403580
H       1.20452980      1.33171150     -1.31618286
H      -0.84965747      2.07305343     -0.20862176
H      -0.38460884      1.27159326      1.29483750
