13
b3lypvtz=-190437.96938057
C       2.23602597      0.29823456      0.03650706
C       0.96613164     -0.08694700      0.13494587
N       0.39727882     -0.65701895      1.30035416
C      -0.81716829     -0.95269831      1.02438648
C      -1.22234560     -0.57424474     -0.35425606
C      -1.12302574      0.88263156     -0.65019433
N       0.01025058     -0.01178877     -0.94366271
H       2.88502576      0.22841684      0.89554228
H       2.62433085      0.68834810     -0.89162977
H      -1.46589120     -1.43400650      1.74659191
H      -1.84282482     -1.22448762     -0.95792852
H      -1.61628056      1.27912135     -1.52788117
H      -1.03160742      1.56443949      0.18712480
