16
b3lypvtz=-204395.17229122977
C      -2.18596958      0.49803420      0.52945476
C      -0.93313066      0.05152453     -0.20854278
N       0.09143956     -0.57498242      0.70465334
H       0.30315945      0.07620702      1.45781194
H      -0.31555682     -1.39340132      1.15228168
C       1.47680509     -1.04094163      0.15947161
C       2.28259857      0.14571602     -0.26321154
C       2.16176109      0.52212589     -1.52005136
O       2.00525648      0.74176990     -2.66038352
H      -2.68175065     -0.33783236      1.02766023
H      -2.89935192      0.93388010     -0.17074006
H      -1.95778761      1.25673405      1.28082387
H      -0.43105415      0.88542395     -0.69381320
H      -1.15336571     -0.69748498     -0.96756805
H       1.21682216     -1.68975292     -0.67970576
H       3.02012470      0.62297995      0.37263790
