18
b3lypvtz=-205217.34932916
C      -2.25220480      0.80813306     -0.51915503
C      -1.34829663     -0.10146668     -0.14910156
O      -1.65770328     -1.03893525      0.80043750
N      -0.05899571     -0.24143873     -0.67246969
C       1.10290332     -0.11271956      0.23627705
C       2.33544289     -0.68715509     -0.45585245
C       1.32419542      1.32843109      0.70347445
H      -1.97822813      1.62564582     -1.16780507
H      -3.27232028      0.73322999     -0.17726226
H      -1.14781125     -1.83442153      0.60429397
H       0.05687584      0.32782861     -1.50059740
H       0.87652050     -0.72479153      1.11100309
H       3.20639605     -0.63888954      0.19898583
H       2.57079337     -0.12008640     -1.36063067
H       2.17149405     -1.72557497     -0.74346964
H       2.13574741      1.38217094      1.43160858
H       1.58929807      1.97125807     -0.14039884
H       0.42318119      1.73111971      1.16663916
