14
b3lypvtz=-227016.62614949
O       2.60298426     -1.61830626     -0.54319986
C       1.79795930     -0.71380363     -0.50707355
O       2.06249913      0.53553737     -0.97436039
N       0.53247333     -0.81901649     -0.01559098
C      -0.37998978      0.26638241      0.19865295
C      -1.12035772      0.84769338     -0.97106957
C      -1.84509318     -0.01811343      0.02295316
H       2.96712517      0.49463119     -1.31078496
H       0.35540518     -1.69526159      0.44713484
H      -0.10495366      0.95368644      0.99076341
H      -1.30575084      1.91217020     -0.96699207
H      -0.90644769      0.42602690     -1.94196948
H      -2.12073682     -1.01483663     -0.29291303
H      -2.53501670      0.44361012      0.71454953
