14
b3lypvtz=-201304.04797853
C      -2.36345358     -0.61186431      0.00570408
N      -1.03033149     -0.05908322      0.00397907
C      -0.65659411      1.23719793      0.00392391
C       0.72104547      1.26945380     -0.00424915
C       1.10014313     -0.09320462     -0.00414909
N       2.38853222     -0.61728959     -0.07959089
N       0.03994131     -0.89452900      0.00760564
H      -3.08358197      0.20364984      0.01191053
H      -2.52164186     -1.22419729     -0.88283766
H      -2.51621025     -1.23255774      0.88940494
H      -1.38172844      2.03356519      0.00398736
H       1.35569244      2.13783116     -0.02460434
H       2.41118535     -1.60225035      0.14154737
H       3.06817980     -0.10757180      0.46371622
