13
b3lypvtz=-265404.66640734
N       2.60354340     -0.32433548     -0.38655997
C       1.41889349      0.17432929      0.05866653
O       1.19484748      1.33639426      0.30233953
O       0.50517723     -0.83095687      0.16583827
C      -0.80321024     -0.44995144      0.61875336
C      -1.65811961     -0.00099581     -0.55419568
F      -2.95962763      0.18871745     -0.09555641
H       2.75710721     -1.31657093     -0.38651785
H       3.39646517      0.28991005     -0.35541685
H      -1.22972047     -1.34323236      1.07095014
H      -0.72708424      0.34194204      1.36111733
H      -1.29759554      0.94174398     -0.96527124
H      -1.67708727     -0.76422019     -1.33431516
