17
b3lypvtz=-191979.74984167
N       2.48986786     -0.15001302     -0.63205535
C       1.70563226      0.32495596      0.51924768
C       0.24049995      0.22789951      0.23939364
C      -0.64859914      1.20353504      0.03874376
C      -1.98655001      0.60450793     -0.32575270
C      -1.79182858     -0.87489059      0.07698485
N      -0.32340368     -1.05593784      0.06236939
H       2.12612521     -1.04052432     -0.94988849
H       3.45541964     -0.29774909     -0.36388041
H       1.92191571     -0.23079411      1.44711569
H       1.95746094      1.36896985      0.70982086
H      -0.41643361      2.25603935      0.00416350
H      -2.83731440      1.05911435      0.18461340
H      -2.17380598      0.69607400     -1.40204638
H      -2.27972124     -1.57308761     -0.60218141
H      -2.18886173     -1.04199880      1.08504283
H       0.01026879     -1.74840662      0.72033816
