15
b3lypvtz=-191205.78697333
C      -0.15002126     -1.37834400      0.13473563
C      -1.24006133     -0.35787388     -0.10912397
C      -0.83279213      1.01145656     -0.51149688
N      -1.48821603      0.75172657      0.80916496
C       0.61767736      1.29726352     -0.56442522
C       1.49129908      0.43460595     -0.02727390
N       1.09392922     -0.74816182      0.58266162
H      -0.00754206     -1.93131587     -0.80605993
H      -0.45998538     -2.10166458      0.89316026
H      -2.13916439     -0.78726506     -0.54014476
H      -1.46596542      1.56700245     -1.19150120
H      -0.77379094      0.76688044      1.53210136
H       0.96412507      2.23207718     -0.97865788
H       2.55213016      0.64440156      0.01268672
H       1.83837804     -1.40078903      0.76417322
