14
b3lypvtz=-226998.95565214
C      -0.44403893      1.56985269     -0.06141471
C      -0.07549126      0.29368601      0.00396894
C      -0.95610547     -0.83017842     -0.47721691
O      -2.13709833     -0.30085323     -1.05969627
C       1.23983948     -0.10197754      0.57878724
N       2.31725752      0.56077139      0.64688769
O       1.21631551     -1.37003207      1.06934686
H       0.18580996      2.35964465      0.32523163
H      -1.39509599      1.84592959     -0.49017465
H      -0.39672130     -1.43721437     -1.20067413
H      -1.18774188     -1.48334889      0.37099943
H      -2.70334401     -1.03380437     -1.31426644
H       2.22538175      1.47333553      0.21310842
H       2.11093295     -1.54591096      1.39501289
