13
b3lypvtz=-192839.07024467
C       1.70773517      0.73848154      0.04055753
C       0.44429122      1.18408920     -0.02058385
C      -0.45607198     -0.00000002     -0.01510570
C       0.44429193     -1.18408871     -0.02058254
C       1.70773561     -0.73848023      0.04055839
C      -1.78804944     -0.00000012      0.63957238
O      -1.68328628     -0.00000079     -0.77102305
H       2.59901124      1.34657413      0.08378080
H       0.09769621      2.20488675     -0.04919407
H       0.09769752     -2.20488651     -0.04919139
H       2.59901209     -1.34657224      0.08378148
H      -2.15048995      0.91995159      1.08739254
H      -2.15048936     -0.91995160      1.08739350
