15
b3lypvtz=-219527.83979123
C      -2.38508341      0.62953932     -0.21910029
C      -1.61655672     -0.39299632      0.17077570
C      -0.18682830     -0.55398290      0.04552146
F       0.17992747     -1.88762192     -0.01161381
C       0.83173750      0.32699842      0.01368152
C       0.65983551      1.80696825      0.15833535
N       2.13536097     -0.10341563     -0.20356574
H      -3.44777799      0.61978764     -0.02131382
H      -1.99671055      1.48656841     -0.75027042
H      -2.09578611     -1.24966969      0.63628363
H       0.71336795      2.31221313     -0.80924195
H       1.46280678      2.21383280      0.77967966
H      -0.29014785      2.05502305      0.62366938
H       2.84934224      0.44332230      0.25172312
H       2.27727352     -1.09688485     -0.10761677
