14
b3lypvtz=-224552.68214432
C      -2.68503189      0.37109220     -0.14602905
C      -1.24049389      0.48790890     -0.60982388
N      -0.33243980     -0.13019873      0.35522375
C       0.90049806     -0.10863352      0.10493410
N       1.79443641     -0.70251403      1.02952937
N       2.95769605     -0.59834894      0.64288772
O       3.80768904     -1.18250707      1.56227343
H      -2.96679854     -0.67572266     -0.02979569
H      -3.36101897      0.83355612     -0.86712053
H      -2.81897048      0.86222746      0.81810503
H      -0.97333616      1.54198068     -0.74254761
H      -1.12065236      0.00763708     -1.58706118
H       1.36127862      0.33837279     -0.78503168
H       4.67714391     -1.04485028      1.16468779
