20
b3lypvtz=-205970.48134907
C       3.71090368     -0.26474223     -0.01569476
N       2.46304247      0.48338293     -0.05041556
C       1.27502216     -0.35747080      0.00935485
C      -0.00136538      0.47699535     -0.02023603
C      -1.27451748     -0.36987033     -0.00930971
C      -2.54565895      0.47145384     -0.01854963
O      -3.73515584     -0.31087346     -0.07187141
H       3.80726947     -0.94123617      0.84894323
H       4.55384549      0.42669101     -0.00290478
H       3.79722956     -0.87298247     -0.91882040
H       2.44381079      1.15079326      0.71163647
H       1.26548939     -1.01351119      0.89813454
H       1.29409195     -1.02300433     -0.85965495
H      -0.00610867      1.15420556      0.84180234
H       0.01996137      1.11126968     -0.91018137
H      -1.28081304     -1.01435212      0.87768108
H      -1.29232841     -1.03416428     -0.87752275
H      -2.57286089      1.10011702     -0.91018860
H      -2.55950007      1.14193361      0.85064995
H      -3.77704061     -0.85422589      0.72101348
