16
b3lypvtz=-227754.76544323
C      -2.70958257     -0.27667507      0.20938726
O      -1.67745969      0.67331582     -0.06865723
C      -0.40819418      0.22148947     -0.13439159
O      -0.29883600     -1.08804166     -0.42379321
C       0.63544462      1.04736340      0.05817101
C       2.05298403      0.60281352     -0.16573280
N       2.26271699     -0.78616913      0.32203205
H      -2.80168008     -1.01149066     -0.58900813
H      -2.52561931     -0.79403610      1.15308710
H      -3.62447293      0.30560104      0.28402857
H       0.65086250     -1.32129874     -0.24289835
H       0.43550250      2.07267905      0.32614315
H       2.73805806      1.31308629      0.30718127
H       2.31036767      0.58705711     -1.23179994
H       2.24835369     -0.80394930      1.33605079
H       3.15958270     -1.14763604      0.01984406
