11
b3lypvtz=-212999.28816509
N       3.93165102     -0.23731693      1.11021440
C       2.93264370     -0.05784524      0.56207768
C       1.73369918      0.19421063     -0.17365001
N       0.59196800     -0.11952036      0.31261291
C      -0.54565922      0.13426410     -0.41485382
C      -1.72802738     -0.20879595      0.12253163
O      -2.88963988      0.00579107     -0.52569716
H       1.86531374      0.66114375     -1.15293789
H      -0.49631632      0.59963811     -1.39860867
H      -1.76599434     -0.67112252      1.10188911
H      -3.62963850     -0.30044666      0.00632180
