18
b3lypvtz=-205204.94388729
C       2.52047155      1.35217023      0.11022952
N       1.40223863      0.89711280      0.47000250
C       1.29242392     -0.52633760      0.74956250
C       0.19589588     -1.20360598     -0.08258495
C      -1.25045123     -0.85924966      0.28938714
C      -1.70664643      0.54521003     -0.07455240
O      -3.11189601      0.61387886      0.18554549
H       2.62428556      2.41309320     -0.10712219
H       3.41822197      0.72934844      0.00183713
H       2.25029102     -1.04065200      0.58200635
H       1.04411989     -0.63019891      1.81048428
H       0.32974761     -2.28186285      0.03667821
H       0.37317291     -0.99035673     -1.14106608
H      -1.40458242     -1.01254845      1.36144295
H      -1.91887956     -1.55888324     -0.21937186
H      -1.16058402      1.29202863      0.50444318
H      -1.50151551      0.73551981     -1.13647042
H      -3.39651374      1.52533340      0.07854868
