13
b3lypvtz=-211382.50384347
C       2.37937484     -0.54693538      0.00467943
N       1.02210789     -0.05494919      0.00312869
C       0.56407087      1.20380513      0.00400244
N      -0.75608229      1.22579353     -0.00037935
C      -1.07131963     -0.09917511     -0.00606385
N      -2.37599527     -0.53842453     -0.07099833
N      -0.03226263     -0.92313753      0.00063557
H       3.05991280      0.30198256      0.01560812
H       2.56371005     -1.14670709     -0.88639933
H       2.55514947     -1.16261070      0.88660553
H       1.21272517      2.06495152      0.00927080
H      -2.51613643     -1.47816639      0.26324227
H      -3.04137783      0.12385217      0.29368601
