12
b3lypvtz=-226241.38993893
C       0.87176668     -0.25253539      0.10994906
C       1.86469586      0.48365879      0.64269663
O       3.17745966      0.33592007      0.42192358
C      -0.49358506      0.01859253      0.43500240
N      -1.46387529     -0.66936854     -0.06424269
C      -2.76004499     -0.28582254      0.34704868
O      -3.05062345      0.60737583      1.10772021
H       1.07826244     -1.06616374     -0.57680168
H       1.66915236      1.29812411      1.32917362
H       3.33495028     -0.39322909     -0.19204254
H      -0.69621078      0.83940469      1.13015463
H      -3.53194772     -0.91595671     -0.11917040
