12
b3lypvtz=-231191.91941982
C      -2.37571211     -0.16272182     -0.60230150
C      -1.34717202     -0.48599254      0.40250940
O      -2.27236015      0.59935795      0.59423783
C       0.03473145     -0.15505063      0.19043221
C       1.19767415      0.09405104      0.01730065
C       2.60195856      0.41234558     -0.16960372
F       2.96406759      0.36152650     -1.51611945
H      -3.24966025     -0.80176660     -0.67952486
H      -2.07647407      0.35011045     -1.50940386
H      -1.52767904     -1.33453489      1.05506279
H       3.23364661     -0.29740792      0.36944781
H       2.81697926      1.42008288      0.19360115
