14
b3lypvtz=-201312.74731807
C      -2.51752688     -0.39373383     -0.39887214
C      -1.55580692      0.50515896      0.38422973
C      -0.12039284      0.14972311      0.16816503
N       0.40680132     -1.06158619      0.17676705
C       1.72959399     -0.83189536     -0.04099330
N       2.06201842      0.43520001     -0.18648356
N       0.86184815      1.05028172     -0.04980767
H       0.80088740      2.05211437     -0.11646706
H      -2.34985609     -1.43909755     -0.14564365
H      -2.37113658     -0.28178279     -1.47376645
H      -3.55215332     -0.13963989     -0.16653668
H      -1.77341048      0.42543322      1.45326353
H      -1.70996687      1.55301274      0.11488894
H       2.46377870     -1.61904455     -0.09521577
