14
b3lypvtz=-226993.80979835
C       2.56820472     -0.18980989     -0.00204246
O       1.24759654     -0.53535336     -0.38541707
C       0.26035230      0.04482290      0.40461363
C      -0.25034974      1.47505304      0.01965635
N      -1.56904361      0.86282600     -0.16989448
C      -1.18096930     -0.43058692      0.06068429
O      -1.75415373     -1.48331624      0.01668730
H       3.24246882     -0.74207831     -0.65293448
H       2.76302809     -0.47014928      1.03940165
H       2.75907398      0.88294785     -0.12035038
H       0.48441621     -0.05146516      1.47337497
H       0.20117230      1.85380478     -0.89811830
H      -0.21305315      2.23086463      0.80506081
H      -2.45813042      1.24540496     -0.45244484
