17
b3lypvtz=-194377.53574891
C      -0.42868776      1.23628490      0.94537754
C      -0.32875449      0.05986942     -0.00544995
C      -1.61065364     -0.54612048     -0.51333540
C      -0.76906302     -1.29752775      0.48735536
C       0.85015885      0.12248473     -0.96629771
C       2.18480031      0.04802707     -0.26333936
O       3.09822756      0.81362543     -0.43621669
H       0.45525448      1.31548046      1.58281637
H      -1.29827136      1.14166354      1.59665830
H      -0.52297520      2.17557442      0.39502875
H      -1.63888230     -0.91153564     -1.53107328
H      -2.54170728     -0.11489752     -0.17135714
H      -1.13277699     -1.37564015      1.50287179
H      -0.23442646     -2.17247121      0.14228622
H       0.82749047      1.03227233     -1.56962298
H       0.80462265     -0.73306283     -1.65018078
H       2.28564418     -0.79402671      0.45447895
