16
b3lypvtz=-225338.5989991
C       0.40426502      0.16210032      0.66991787
C       1.36696640     -0.03668071     -0.50671519
N       2.75141448      0.07563271     -0.03994365
C      -1.03922881     -0.00162923      0.29303202
N      -1.77678818      1.04886719      0.29328207
O      -3.10913293      0.70528046     -0.10308199
N      -1.46687040     -1.24983096     -0.09473335
H       0.66748295     -0.54873726      1.45902037
H       0.52470083      1.16482119      1.08022454
H       1.23501259     -1.03628298     -0.92467108
H       1.10161346      0.67538563     -1.29929654
H       2.94809109      1.02732527      0.25001980
H       3.39593175     -0.13299408     -0.79309120
H      -3.56683368      1.54439339     -0.00899626
H      -2.46658899     -1.35983452     -0.15585323
H      -0.97003561     -2.03781644      0.28452000
