18
b3lypvtz=-205201.42194644
C       2.48841354     -0.66459866      0.52802984
C       1.52702215      0.04576678     -0.39465982
C       0.70716549      1.23657848      0.13723148
C      -0.51093149      0.45300131     -0.38031764
C      -1.65511153      0.20757654      0.58015046
N      -2.71322958     -0.58945124     -0.03863800
O       0.31226973     -0.71366620     -0.63609353
H       2.81176370     -1.60858469      0.08612774
H       3.37455238     -0.04937212      0.70233759
H       2.01716389     -0.87986526      1.48812340
H       2.01839919      0.27240914     -1.34823632
H       0.73202839      1.32409028      1.22430815
H       0.89798248      2.21037683     -0.30872058
H      -0.90301251      0.84895166     -1.32630942
H      -1.98803854      1.19204501      0.94982821
H      -1.26737230     -0.34444187      1.43882244
H      -3.39990619     -0.87180089      0.64938961
H      -3.20507479     -0.04822711     -0.74017759
