15
b3lypvtz=-193618.70564177
C       2.74301547     -0.06505845     -0.37299847
C       1.52547565     -0.50666843     -0.08838245
C       0.54774285      0.21033994      0.80675993
C      -0.73328555      0.58326147      0.09956366
C      -1.06510638      1.82777080     -0.25018237
C      -1.69286626     -0.49765016     -0.21875098
O      -1.53100455     -1.66174172      0.06586219
H       3.12042306      0.86816977      0.02954163
H       3.41090602     -0.62386256     -1.01520113
H       1.17977029     -1.44682964     -0.50358827
H       0.29159480     -0.44930400      1.64182008
H       1.01209736      1.10727244      1.21852259
H      -0.42474987      2.67546749     -0.04431482
H      -1.99993567      2.03180979     -0.75879580
H      -2.60787823     -0.16262973     -0.74818881
