12
b3lypvtz=-249769.35215963
C      -0.63709217      0.15892152     -0.09601313
N       0.52107144      0.51881499      0.36760995
C       1.67835741     -0.18649664      0.26185173
N       2.78565844      0.01493667      0.81848791
F       1.65093817     -1.27094695     -0.60177178
N      -0.99474965     -1.04404826     -0.63440419
N      -1.65396799      1.07784893     -0.02173016
H       2.71233758      0.83099137      1.41875301
H      -1.79839013     -1.06031264     -1.23930305
H      -0.23939996     -1.65752831     -0.88894373
H      -2.59381491      0.73179343      0.08013771
H      -1.43094823      1.88602588      0.53532573
