18
b3lypvtz=-205217.90549708033
C       2.97666641      0.00135709     -0.41456223
C       1.60469360     -0.64832946     -0.30610493
N       0.62180882      0.28157646      0.26378727
H      -0.56926959      1.67438634     -0.80489883
H       0.97915013      0.64943639      1.13969230
C      -0.69409834     -0.25851737      0.43397576
C      -1.72632902      0.38670882     -0.12337851
O      -1.53387847      1.53191982     -0.82901364
C      -3.15388432     -0.03166762     -0.05094081
H       3.69665574     -0.68875248     -0.85610674
H       3.35604310      0.28866114      0.56926896
H       2.93365191      0.89820138     -1.03362626
H       1.67725138     -1.57304333      0.28579259
H       1.24638099     -0.93966249     -1.29520944
H      -0.84316464     -1.18152110      0.98647237
H      -3.26032860     -0.95808566      0.51033300
H      -3.55665384     -0.17648609     -1.05580741
H      -3.75469523      0.74381816      0.42936557
