12
b3lypvtz=-200517.62808078
N       2.45252499      1.81212348     -0.36238240
C       2.08858910      0.72255017     -0.47891420
C       1.75192537     -0.64590466     -0.63937012
C       0.53322283     -1.19934939     -0.48027839
C      -0.72125824     -0.57429110     -0.12593042
N      -0.82814434      0.69397452      0.04594519
N      -2.02485663      1.22010243      0.31880739
H       2.58184415     -1.28538052     -0.91113626
H       0.47332063     -2.27032493     -0.63289742
H      -1.58831141     -1.23229190     -0.01525517
H      -1.97224842      2.14328846      0.71515922
H      -2.74660801      0.61540344      0.69925259
