19
b3lypvtz=-171847.70089683
C      -2.46601850     -0.00000401      0.00000202
C      -1.13641747     -0.00000194      0.00000118
C      -0.31878709      1.22809435      0.34596799
C       1.02766119      1.22541999     -0.38699275
C       1.88506337      0.00000383      0.00000013
C       1.02766679     -1.22541808      0.38698889
C      -0.31878383     -1.22809559     -0.34596768
H      -3.03423333      0.89565229      0.22042908
H      -3.03423087     -0.89566199     -0.22042454
H      -0.88639492      2.13330796      0.12476567
H      -0.13147590      1.23977175      1.42650614
H       0.83841217      1.22085717     -1.46360748
H       1.57399451      2.14678758     -0.17825322
H       2.54118939     -0.25588061     -0.83496213
H       2.54118262      0.25589292      0.83496631
H       1.57400320     -2.14678240      0.17824308
H       0.83842093     -1.22086164      1.46360418
H      -0.88638806     -2.13331099     -0.12476343
H      -0.13147621     -1.23977260     -1.42650642
