11
b3lypvtz=-238687.22476693
C      -1.72633833     -0.50997197     -0.32207139
C      -0.35428453     -0.33203422      0.20071554
O      -0.96384718     -1.61899078      0.11349315
C       0.74972105     -0.06580174     -0.77201147
O       0.86606609     -0.61858728     -1.83958006
C       1.78183152      0.99934218     -0.38408866
O       1.74146495      1.61998028      0.64445975
H      -1.88131830     -0.44950720     -1.39392205
H      -2.56057160     -0.22837875      0.31174489
H      -0.21737800      0.06167852      1.20002869
H       2.56465431      1.14227096     -1.15240012
