16
b3lypvtz=-204425.54789133
C       3.01778481     -0.42009590     -0.28707617
N       2.18287959      0.26719937      0.36008766
C       0.79734978     -0.17744785      0.38055878
C      -0.11170757      0.93472073     -0.14408027
C      -1.58403503      0.60544202     -0.19793861
C      -2.25778889     -0.39640561      0.63397243
O      -1.97272605     -0.66223770     -0.74471921
H       2.75467321     -1.33576316     -0.83174147
H       4.05903387     -0.10626024     -0.31815800
H       0.54835564     -0.38959089      1.42346408
H       0.64415575     -1.09600941     -0.19973759
H       0.02431308      1.82974026      0.46844394
H       0.21037043      1.20446777     -1.15425586
H      -2.20008668      1.42702135     -0.55654152
H      -3.30955775     -0.27217820      0.87152230
H      -1.69314419     -0.99035254      1.34349852
