16
b3lypvtz=-227756.09151507
C      -1.44953954      1.15970998      0.72005070
C      -0.89433458      0.13497192     -0.21274267
C       0.31471084     -0.43928579     -0.19117111
C       1.39594817     -0.16909726      0.80957790
O       2.50542798      0.52006348      0.23206009
N       0.75692033     -1.27351238     -1.25028020
O      -1.72853530     -0.20387857     -1.27431865
H      -1.68682299      2.08300340      0.18162479
H      -2.37760543      0.80359339      1.18221987
H      -0.75980316      1.41041884      1.52042852
H       1.04219475      0.43896489      1.63779065
H       1.73676266     -1.12625517      1.23457318
H       2.60093373      0.17672108     -0.66426359
H       1.14007904     -2.15096190     -0.91883194
H       0.02685371     -1.45322811     -1.92521622
H      -2.62319024      0.08877221     -1.08150134
