14
b3lypvtz=-203647.25097193
C      -1.86369044     -0.88659804     -0.20678320
O      -0.46260057     -1.11023129     -0.27825581
C       0.31042643     -0.04456327      0.25983268
C       0.29773951      1.15876498     -0.68208688
N      -0.07219864      2.33541504     -0.41259862
C       1.68002227     -0.51314620      0.45443382
C       2.81971268     -0.85265638      0.60293654
H      -2.19057228     -0.75839528      0.83182079
H      -2.33826562     -1.77254104     -0.62210414
H      -2.17338406     -0.01075785     -0.78519021
H      -0.10451898      0.26919179      1.22968700
H       0.63216636      0.93107149     -1.69553336
H      -0.36031148      2.41901176      0.56586379
H       3.82547483     -1.16456570      0.73787761
