15
b3lypvtz=-216906.06695007
C       1.74854353      1.33476535      0.19175334
C       0.84771635      0.15600601     -0.10200704
C      -0.57583178      0.48934883     -0.37768058
C      -1.59033583     -0.15140024      0.19091949
O      -2.89213197      0.17143767     -0.07373029
C       1.44024933     -1.08356925     -0.63932199
O       1.06118054     -0.99017389      0.73982200
H       1.75581862      2.03008103     -0.65036504
H       2.76913497      1.00292828      0.37873008
H       1.39082659      1.87454145      1.07005032
H      -0.77370565      1.30914872     -1.05868533
H      -1.42004261     -0.96147608      0.89012389
H      -3.47116744     -0.38373642      0.45407697
H       2.51038144     -1.13734404     -0.81880365
H       0.82662491     -1.74448943     -1.24247317
