13
b3lypvtz=-216143.74809106
C      -2.38324914     -0.93731375      0.03951109
C      -1.80875581      0.26410770      0.04786910
C      -0.35692742      0.55358620     -0.02705134
O       0.03111988      1.70338378     -0.06602927
C       0.63402932     -0.58492374     -0.02825401
C       1.92716135     -0.38768086      0.65168586
O       1.83768704     -0.35433318     -0.76239229
H      -3.45933034     -1.03778665      0.09332409
H      -1.82128111     -1.85860169     -0.02525643
H      -2.41376298      1.16165826      0.10564354
H       0.25139839     -1.59417508     -0.11438706
H       2.11322406      0.57192884      1.12081490
H       2.43493076     -1.24962782      1.07269683
