14
b3lypvtz=-201300.27852912
C       2.80819762     -0.70148427     -0.01416308
C       1.70587321      0.34625260      0.03240779
N       0.39749118     -0.28207605     -0.03602987
C      -0.76857653      0.43268264     -0.00850943
N      -0.94860412      1.69619405     -0.00352628
C      -1.95179553     -0.41897278     -0.00030124
N      -2.86057190     -1.12403037      0.01223299
H       2.73601622     -1.38658935      0.83259648
H       3.78497769     -0.22128675      0.02834730
H       2.75719949     -1.28347697     -0.93540485
H       1.78888663      0.94075619      0.94962529
H       1.81392192      1.03896398     -0.80790510
H       0.34075749     -1.28041849      0.07464269
H      -0.06778835      2.20578458     -0.00375869
