16
b3lypvtz=-232751.04795763
C       2.11248716     -0.91525451     -0.44145356
C       0.99417592      0.00258131     -0.00418460
C       1.35824097      1.46957934      0.03385036
O       0.23800226     -0.47848822      1.12314074
C      -0.39668381     -0.45748798     -0.16219549
C      -1.57500572      0.44866680     -0.34953144
F      -2.74619922     -0.23530898     -0.01969857
H       2.43209733     -0.68234652     -1.45931470
H       1.79620097     -1.95653445     -0.40424408
H       2.97571731     -0.79572822      0.21661758
H       1.62314445      1.82715595     -0.96333636
H       2.22636057      1.61574058      0.67976561
H       0.54815253      2.08317010      0.42027280
H      -0.55120698     -1.44426356     -0.59451832
H      -1.66223911      0.75680741     -1.39519064
H      -1.51442363      1.32699596      0.29091565
