15
b3lypvtz=-193595.6097226
C       3.69542199      0.32388832      0.00000137
C       2.20584260      0.43243971     -0.00000402
C       1.36918417     -0.61099719      0.00000582
C      -0.04644097     -0.51369064      0.00000174
C      -1.24992543     -0.45798508     -0.00000143
C      -2.70427282     -0.41188419     -0.00000507
O      -3.14595783      0.94607166      0.00000879
H       4.12476935      0.81870141      0.87599682
H       4.02451905     -0.71559636      0.00001165
H       4.12477462      0.81868583     -0.87600027
H       1.78658357      1.43323361     -0.00001629
H       1.77786767     -1.61799767      0.00001861
H      -3.07912963     -0.94452168     -0.88364073
H      -3.07913463     -0.94454144      0.88361660
H      -4.10817570      0.94211171     -0.00000560
