10
b3lypvtz=-202155.64884784
C      -0.58548456     -0.09207436     -0.54176972
C      -1.58930100     -0.15732305      0.35144066
O      -2.90003005     -0.08162173      0.07647055
C       0.76467632     -0.18122768     -0.16598430
C       1.93721470     -0.25526526      0.12694355
C       3.25479044     -0.33952905      0.46334928
N       4.37476742     -0.41119197      0.74943923
H      -0.80357782      0.03382893     -1.59843781
H      -1.40896425     -0.28183624      1.41068130
H      -3.04409120      0.02865951     -0.87213273
