12
b3lypvtz=-226228.39587436
C      -2.94789124     -0.32444482     -0.00039291
N      -1.50695830     -0.44994141     -0.00011596
C      -0.80361096      0.60229228      0.00037887
C       0.68676101      0.53299922      0.00054028
O       1.35248547      1.53977999      0.00074373
C       1.35802754     -0.86400391      0.00006985
O       2.55289679     -0.96965778      0.00010959
H      -3.30077770      0.71299260     -0.00004682
H      -3.34294806     -0.84423321      0.87463631
H      -3.34253920     -0.84350169     -0.87604206
H      -1.21678508      1.61872613      0.00064919
H       0.68029172     -1.73138939     -0.00012706
