13
b3lypvtz=-190439.93821665
C      -1.47938642      0.58690610     -0.12699811
C      -1.35981521     -0.74909413     -0.21804083
C      -0.18733439     -1.49344011      0.24706577
N       1.04644407     -1.18592689      0.22044226
N       1.38397165      0.03292915     -0.47122675
C       0.88939906      1.22145059      0.08455343
C      -0.41551509      1.49313846      0.25221458
H      -2.44749371      1.03187089     -0.33275064
H      -2.22446423     -1.34416647     -0.48616469
H      -0.38751182     -2.44359574      0.73906814
H       2.39181048      0.04273339     -0.50135111
H       1.63461464      1.96698080      0.34236995
H      -0.68421302      2.46682996      0.63892199
