11
b3lypvtz=-212985.35366462
C       2.30401605      0.31831627     -1.29984842
C       1.37122234     -0.25520677     -0.80498227
C       0.24079345     -0.94803216     -0.21604470
O       0.21915100     -2.15412962     -0.12882206
C      -0.94039981     -0.11091152      0.28295482
N      -1.97473348     -0.66037515      0.77629676
N      -0.78892021      1.24657346      0.20238389
H       3.14046848      0.80690724     -1.73733889
H      -1.84881237     -1.67111606      0.78554186
H      -0.11117176      1.63074644     -0.43197248
H      -1.61161370      1.79722788      0.38396472
