13
b3lypvtz=-237068.5820007
N       1.56551383      1.38806070      0.02843033
C       1.51482616      0.12086901      0.00434491
N       2.54548238     -0.79304249     -0.07900399
O       0.33537219     -0.55600478      0.00960099
C      -0.83949942      0.18020202     -0.01023933
C      -1.99873476     -0.46497304      0.01455731
O      -3.23310299      0.12076686     -0.00275546
H       2.51927652      1.73043580      0.00031523
H       2.31011035     -1.73793946      0.17839994
H       3.44047575     -0.47856651      0.25362241
H      -0.71273666      1.25222115     -0.04267633
H      -2.05955804     -1.54336260      0.05077148
H      -3.13613632      1.07912133     -0.03866551
