15
b3lypvtz=-191224.36611068
C      -3.27453564      0.21431783     -0.02299172
C      -2.04890260     -0.70886293     -0.01461164
C      -0.78848492      0.02444902      0.31990137
N       0.20175768      0.06605713     -0.46462169
C       1.36506518      0.83177431     -0.03510863
C       2.56264205     -0.01242514      0.01580155
N       3.50797899     -0.66420276      0.07415028
H      -4.18135188     -0.35609548     -0.22348159
H      -3.40361090      0.71609039      0.93797309
H      -3.18161069      0.98109305     -0.79308292
H      -1.91964064     -1.19820333     -0.97935842
H      -2.19500209     -1.49180540      0.73720700
H      -0.77240345      0.54131683      1.29199673
H       1.54911226      1.62401698     -0.76551920
H       1.23694364      1.30680951      0.94753678
