12
b3lypvtz=-202890.46473845
O       1.19786052     -0.03159650      0.03481656
C       2.36238565      0.18094458     -0.08030268
C       3.27602735      1.39064189     -0.01411114
C       4.31357448      0.93143881      1.04938859
C       4.67162234     -0.17195683      0.05197157
C       4.10407956      0.56707233     -1.07524282
N       3.40841547     -0.70311588     -0.58789076
H       2.90274681      2.40597650     -0.07196450
H       3.93188373      0.65334371      2.03322233
H       5.13436974      1.64023981      1.14984839
H       5.49469385     -0.86949295      0.07783702
H       4.35094050      0.70970454     -2.11417257
