19
b3lypvtz=-171838.71519334
C       3.53255198      0.20387659     -0.44986971
C       2.28372663     -0.11266441      0.31435966
C       1.06068186      0.29398713     -0.00908655
C      -0.19473440     -0.03255532      0.75726909
C      -1.17006496     -0.83499762     -0.06510006
C      -2.41211369     -0.50650845     -0.41698893
C      -3.17237560      0.74051164     -0.07885272
H       4.03231700     -0.70894299     -0.78648774
H       4.25273135      0.74116047      0.17384484
H       3.32054405      0.81669472     -1.32670920
H       2.40979396     -0.72375403      1.20556239
H       0.92400853      0.89949639     -0.90211818
H      -0.66130779      0.89212618      1.10451002
H       0.07607512     -0.60216007      1.65217810
H      -0.78412700     -1.78875784     -0.41276601
H      -2.95985485     -1.22321667     -1.02237752
H      -3.49087076      1.25716096     -0.98869993
H      -2.59631229      1.44369068      0.51996664
H      -4.08416414      0.49838764      0.47460683
