15
b3lypvtz=-214514.49776663
C      -2.41597451      0.25252021     -0.67679444
N      -1.22703281      0.39348656      0.15233160
C      -0.93396838     -0.68043078      1.08300631
C      -0.11009858     -0.48133289     -0.15042432
C       1.25182777      0.12388445     -0.08185422
N       1.56366466      1.29405568      0.27425561
O       2.20072210     -0.77194568     -0.44966291
H      -2.62155661     -0.78891577     -0.96128193
H      -3.27805053      0.63800431     -0.13191390
H      -2.29203197      0.84249919     -1.58504477
H      -1.59311699     -1.54320790      1.09779062
H      -0.53640208     -0.37979936      2.04405263
H      -0.23618833     -1.22525940     -0.93097736
H       0.72023255      1.82127494      0.49175574
H       3.04998373     -0.31380856     -0.37141966
