11
b3lypvtz=-267200.80704929
C      -2.18585168      0.59939912      0.35659544
C      -1.19753331     -0.12932066     -0.14724861
C       0.22475842      0.16363323     -0.04196027
N       1.14503476     -0.54697169     -0.53054671
N       2.43546539     -0.13296583     -0.42655185
F       0.49948170      1.30432030      0.65452413
F      -1.45254111     -1.25710793     -0.82964936
H      -3.21170413      0.29230583      0.22321483
H      -1.96912080      1.50331713      0.90112392
H       3.06675266     -0.91247946     -0.51355853
H       2.64525811      0.47807580      0.35405702
