16
b3lypvtz=-204469.17592048
O       2.36131254     -1.39987246      0.09310138
C       1.12055651     -0.83505597     -0.03345971
N       0.20419022     -1.56074231     -0.49775132
C      -1.14563525     -1.02827408     -0.63239348
C      -1.43434661      0.24178144      0.17006476
C      -0.29903524      1.24558739     -0.01583737
C       1.02092873      0.60533094      0.42246989
H       2.97881754     -0.74305506      0.42980182
H      -1.83996872     -1.82156213     -0.34679978
H      -1.32568016     -0.84596359     -1.69822031
H      -2.38946325      0.66907827     -0.14232610
H      -1.52850793     -0.00892826      1.23141666
H      -0.47840100      2.16292077      0.54678950
H      -0.23317569      1.52771093     -1.07048007
H       1.87452452      1.16621682      0.02959759
H       1.11388379      0.62482731      1.51392653
