16
b3lypvtz=-204420.58946207
C      -2.31243294      1.29425333     -0.01135568
N      -2.44357368     -0.11810099      0.33250627
C      -1.52150660     -0.99633570     -0.38509820
C      -0.09003612     -0.77059083     -0.13175703
C       1.06676506     -0.55836519      0.12504697
C       2.47922921     -0.29391161      0.39133482
O       2.95774913      0.91241585     -0.19941857
H      -1.30391419      1.70298547      0.13594400
H      -2.58365908      1.43578884     -1.05989730
H      -3.01164182      1.87397091      0.59104518
H      -2.30955799     -0.24092560      1.32886314
H      -1.76575906     -2.03092779     -0.13168873
H      -1.71787420     -0.89034204     -1.45598872
H       2.64324895     -0.18125088      1.46436197
H       3.07562754     -1.15461377      0.06433793
H       2.70892881      0.90677498     -1.12919707
