18
b3lypvtz=-181898.28454797
C      -1.99136075      1.07301358      0.10093701
C      -1.35372219     -0.28685391     -0.17963598
C       0.00845217     -0.47589334      0.48604247
C       0.77612517     -1.77342600      0.08996384
N       1.69417677     -0.92364581     -0.69272370
C       1.19689236      0.26088508     -0.13037033
C       1.65020723      1.51216508     -0.11713913
H      -1.36841527      1.88451432     -0.27658749
H      -2.13395036      1.22941081      1.17282213
H      -2.96845057      1.15260150     -0.37809662
H      -2.01917295     -1.08202830      0.17139360
H      -1.24257368     -0.42768066     -1.25820063
H      -0.07604236     -0.32766661      1.56354332
H       1.24242357     -2.27841617      0.93991367
H       0.22472164     -2.50169270     -0.50768607
H       2.68330588     -1.11041113     -0.76999825
H       2.57595296      1.78547725     -0.60626302
H       1.10143034      2.28964701      0.39208519
