15
b3lypvtz=-193618.93547967
O       1.23976594     -1.20492874      1.97158446
C       0.72082682     -0.66016954      1.03374988
C       1.30883579     -0.38909364     -0.36514128
C       0.08322020      0.31762812     -0.96905315
C      -0.33740204      1.27403371      0.18162883
C      -0.66998580     -0.06581161      0.91897247
C      -1.08114143     -0.59605045     -0.49512590
H       2.19983673      0.23750828     -0.30237653
H       1.57786448     -1.32095247     -0.86500977
H       0.15585508      0.66085338     -1.99738248
H       0.41908499      1.92745049      0.61771695
H      -1.23906928      1.83953982     -0.04696085
H      -1.30766370     -0.12885516      1.79443161
H      -2.05940896     -0.22329522     -0.79343270
H      -1.01051882     -1.66785698     -0.68360153
