18
b3lypvtz=-181899.05315922
C       1.71146281      0.88824148      0.78907703
C       0.95740772     -0.42079035      0.53531444
C       0.60358465     -0.61853780     -0.95868339
C      -0.80297747     -0.04121717     -1.10366529
C      -1.97522141     -0.89630028     -0.67316557
C      -1.35617407      0.07823418      0.28877547
N      -0.36353050     -0.47310807      1.20000541
H       1.86785435      1.04495017      1.85905500
H       2.69329963      0.87734274      0.30994989
H       1.15276357      1.74240338      0.39934421
H       1.56668520     -1.25235942      0.89767225
H       1.31637008     -0.10407027     -1.60301499
H       0.62839541     -1.67722188     -1.22396608
H      -0.97749418      0.72797203     -1.84239647
H      -1.79797608     -1.94683040     -0.48163107
H      -2.94307058     -0.65894115     -1.09594106
H      -1.91788493      0.94535347      0.61276585
H      -0.36349419      0.00407934      2.09050436
