12
b3lypvtz=-223759.21515829113
C       1.73756652      0.79112768     -0.21604369
C       0.50933885      0.23327537      0.05672579
N       0.78193231     -1.12925456      0.24294350
N       2.01978641     -1.37559485      0.10241127
O       2.66929351     -0.19832079     -0.18856368
C      -0.81323259      0.68193498      0.17664437
N      -1.76000206     -0.39641321      0.49349647
H      -2.70199447     -0.02319235      0.56932511
H      -1.53913677     -0.88334317      1.37415867
H      -1.77122263     -1.14712915     -0.21224459
H       2.08780689      1.78157775     -0.43158725
H      -1.22013595      1.66533231      0.06800480
