17
b3lypvtz=-191961.83878855
N      -0.85462540     -1.84952536      0.05440607
C      -0.65063967     -0.58216275     -0.64996205
C      -1.29579071      0.68054651     -0.01903319
N      -0.22997859      1.23916946      0.82748568
C       1.02879695      1.02201273      0.12423511
C       1.72528361     -0.26322235      0.46664854
C       0.82758416     -0.18305274     -0.74912418
H      -1.83887562     -2.09151507      0.05608339
H      -0.57591992     -1.76442503      1.02493436
H      -1.04387151     -0.72259968     -1.65782077
H      -1.60388493      1.37021608     -0.81985012
H      -2.17911326      0.43388827      0.57369927
H      -0.37576064      2.21042308      1.06050130
H       1.59244311      1.88801240     -0.20191751
H       2.78652778     -0.35101904      0.27231557
H       1.38447506     -0.77922592      1.35323558
H       1.30354960     -0.25742060     -1.71603704
