18
b3lypvtz=-205207.99950075
C      -1.34917534      1.44658121     -0.41200802
C      -1.21762347      0.09141365      0.27787759
C      -2.55913828     -0.60486931      0.44515796
O      -0.40144664     -0.79982255     -0.49549879
C       0.96048875     -0.70535724     -0.41652814
C       1.70768717      0.15663937      0.27645571
N       3.11897618      0.23475416      0.18822297
H      -1.94631769      2.12719076      0.19773831
H      -1.84407169      1.32645608     -1.37712024
H      -0.37717891      1.90641465     -0.58356347
H      -0.75734588      0.21635841      1.26430588
H      -3.23987841      0.01325275      1.03228950
H      -3.01348061     -0.78811950     -0.52984768
H      -2.43488578     -1.56227606      0.95063643
H       1.42005893     -1.45854688     -1.04628481
H       1.26807990      0.92270201      0.89911900
H       3.51914279     -0.53577834     -0.33112076
H       3.56089898      0.27638784      1.09752058
