16
b3lypvtz=-181092.99784997
C       2.07978973      0.30481005     -0.27415591
C       0.76748989     -0.39261043      0.01524981
C      -0.32936907     -0.17972662     -1.01480444
C      -1.65527512     -0.27396873     -0.23827416
C      -0.83241209      0.97557553     -0.20945179
N      -0.07574993      0.39640867      1.01143155
C      -1.26265710     -0.52751465      1.20344831
H       1.91565655      1.34134079     -0.57296726
H       2.61674772     -0.20162867     -1.07933934
H       2.71167770      0.30256939      0.61483629
H       0.95161336     -1.41891170      0.34758037
H      -0.30045500     -0.28293278     -2.09091243
H      -2.59448854     -0.44328937     -0.74605881
H      -1.03223595      2.01637370     -0.40890460
H      -1.00240604     -1.53749778      1.53020831
H      -1.95792611     -0.07899739      1.91211409
