20
b3lypvtz=-182667.14782878
C       2.45096433     -0.10069657     -0.16695664
C       0.95261724     -0.20877883     -0.38411149
C       0.18660135     -1.44786605      0.15072000
C      -0.99566732     -0.52344884      0.55705606
C      -2.14496125     -0.49698195     -0.44353538
C      -0.00690663      0.67768057      0.46672070
N      -0.51735478      1.95677469      0.01045791
H       2.82578203      0.88282054     -0.46261517
H       2.70365196     -0.25090882      0.88592424
H       2.99794400     -0.84701715     -0.74799406
H       0.72173216     -0.06343369     -1.44365878
H       0.68484284     -1.88484815      1.01789161
H      -0.03335832     -2.24483802     -0.56037813
H      -1.39885679     -0.69475748      1.55639742
H      -2.71402087     -1.42762133     -0.39533232
H      -2.82829268      0.32728520     -0.23385074
H      -1.79249271     -0.38740884     -1.47237227
H       0.44093329      0.83936822      1.45073331
H      -0.78662498      1.92032434     -0.96538095
H       0.18029114      2.68495116      0.10199166
