15
b3lypvtz=-214524.11207146
N      -3.07596317     -0.34484742     -0.23140185
C      -1.86243033      0.00715793      0.33211753
C      -0.67731274      0.06269060     -0.28778055
C       0.61894173      0.35832812      0.42480480
N       1.33788942      1.53330656     -0.04875280
C       1.49016323     -0.88024545      0.30192027
O       2.50277108     -0.93986159     -0.34892336
H      -3.11406977     -0.35595828     -1.23882852
H      -3.89464466      0.06739850      0.18497071
H      -1.91735154      0.20089750      1.39865532
H      -0.60959207     -0.11607766     -1.35754497
H       0.39199643      0.45271969      1.49711359
H       0.72175766      2.15319824     -0.55550139
H       2.09054738      1.24534599     -0.66478098
H       1.09676835     -1.76636770      0.83689622
