16
b3lypvtz=-227752.095974
C      -1.97943122     -0.91937158     -0.06789985
O      -0.55642338     -0.90530101     -0.06083426
C       0.07061718      0.35163697      0.05595040
C      -0.34578327      1.34789297     -1.01972448
O      -0.23082949      0.96742681      1.30210682
C       1.57462513      0.08441537     -0.00722276
N       2.15025004     -1.02203461     -0.19233986
H      -2.27364172     -1.96094739      0.04083071
H      -2.38307750     -0.53649424     -1.00859933
H      -2.38643355     -0.34127274      0.76351042
H      -1.37917690      1.65817841     -0.87161585
H       0.28075885      2.23681734     -0.96197699
H      -0.23703379      0.90153173     -2.00720256
H       0.09828278      0.39389470      2.00478263
H       2.17934723      0.97897971      0.15490095
H       1.44730861     -1.75414343     -0.32378301
