17
b3lypvtz=-194367.01250916
C       2.72404672     -0.70766745      0.05115194
C       1.57932312     -0.12750964     -0.30009955
C       0.29112140     -0.32432857      0.38216296
C      -1.01230649     -0.35374288     -0.41501582
C      -2.09521376     -1.35156010     -0.08751461
C      -0.72731025      0.80713366      0.46467393
O      -0.46880479      2.03113386     -0.16674499
H       2.78449728     -1.38823755      0.89233787
H       3.63909840     -0.52469924     -0.49560141
H       1.56748788      0.54868883     -1.14870243
H       0.32476985     -0.97797731      1.24684328
H      -0.88277453     -0.13776426     -1.46934099
H      -3.06627122     -1.01220837     -0.45510730
H      -2.18263433     -1.50128174      0.99018590
H      -1.88588610     -2.32310080     -0.53972147
H      -1.28789790      0.88471040      1.39274075
H       0.17615371      2.51666816      0.35858792
