19
b3lypvtz=-192736.14625999
C       2.57420272     -0.54505660     -0.29385095
C       1.55161627     -0.03352188      0.37676907
C       0.27424916      0.47678443     -0.22641494
N       0.18759516      1.93039440     -0.02859827
C      -0.96736812     -0.27815369      0.32458376
C      -0.90969079     -1.78528124      0.06319911
N      -2.17059213      0.36498166     -0.22754208
H       2.55343937     -0.64134662     -1.37286687
H       3.47124633     -0.88246805      0.20892716
H       1.61961483      0.05337732      1.46024740
H       0.30664814      0.29061482     -1.30780740
H       0.49641729      2.17275891      0.90672140
H      -0.79107877      2.19454198     -0.09656109
H      -0.99481806     -0.10410143      1.40572966
H      -0.04932952     -2.25175838      0.54394901
H      -0.83909425     -1.98625105     -1.00975380
H      -1.81295888     -2.27273768      0.43524882
H      -2.29116802      0.10132493     -1.20069717
H      -2.99961173      0.04995416      0.26167217
