14
b3lypvtz=-208661.28155014
F      -3.82733427     -0.01675768     -0.70926209
C      -2.93443234      0.12935410      0.35526126
C      -1.55533968      0.03751123     -0.09540263
C      -0.41024236     -0.03690468     -0.45558748
C       0.95077776     -0.12811766     -0.90072468
C       2.03561816      0.70389197     -0.24456346
C       2.00704884     -0.77780030     -0.02794719
H      -3.16178405     -0.65471122      1.08165202
H      -3.13198472      1.10049519      0.81563130
H       1.05663810     -0.28599774     -1.96689750
H       1.73669489      1.34261966      0.57374606
H       2.79692993      1.11893455     -0.88980826
H       1.68861457     -1.14388002      0.93721418
H       2.74869516     -1.38853741     -0.52311153
