17
b3lypvtz=-191970.9231177
C       2.35692686     -1.28667187     -0.15045253
N       1.61132320     -0.51055179      0.50564631
C       0.66793302      0.32504733     -0.23335471
C       1.03056472      1.79980054     -0.01182585
C      -0.72020130      0.04406338      0.28893010
N      -1.68948784     -0.17601587     -0.48537647
C      -2.99839007     -0.40512711      0.09489667
H       2.33076082     -1.37149875     -1.24379167
H       3.07162871     -1.91377288      0.37853306
H       0.67298756      0.10101805     -1.30673723
H       1.01241246      2.04478427      1.05078138
H       0.32386283      2.44367225     -0.53564734
H       2.03354660      2.00146562     -0.38924111
H      -0.82301481      0.05697503      1.38335211
H      -3.69503939      0.34424030     -0.28639324
H      -3.36920844     -1.37783001     -0.23427283
H      -3.00598391     -0.37265649      1.19244036
