15
b3lypvtz=-170255.47087032
C       0.89050383     -1.42291109      0.24998728
C       1.15090389     -0.02316364     -0.35199067
C       0.46480202      1.00752889      0.57182195
C      -0.75640055      1.15893781     -0.30252235
C      -0.82442749      0.25663985      0.90578249
C      -0.60063535     -1.04329454      0.10173558
C      -0.23961435     -0.07891832     -1.09068888
H       1.17323412     -2.21711773     -0.44400191
H       1.27781331     -1.64454261      1.24643185
H       2.08350356      0.25037111     -0.83810440
H       0.91183120      1.72296769      1.24566315
H      -1.33389113      2.03009325     -0.57342451
H      -1.35753758      0.40122518      1.83349531
H      -1.40000755     -1.77846362      0.06413064
H      -0.37407794     -0.31525222     -2.14071555
