17
b3lypvtz=-215261.3480904
C      -1.51920812     -0.40446601     -0.76038935
C      -0.36993311     -0.11246869      0.21813609
C      -0.78907871      0.98918517      1.20516216
N      -0.10169014     -1.33199031      0.98297795
C       0.81861071      0.39236018     -0.58200268
N       1.92839428     -0.21622639     -0.56514625
O       2.88522410      0.42494853     -1.37642438
H      -1.24298048     -1.20217968     -1.45260378
H      -2.39982306     -0.72245424     -0.20279074
H      -1.77495868      0.47825528     -1.34839784
H       0.00942057      1.18921619      1.92215564
H      -1.01766109      1.92159543      0.68672618
H      -1.67280439      0.66732324      1.75563442
H       0.21015821     -2.06410978      0.35342714
H       0.67859650     -1.17211453      1.61158720
H       0.69690925      1.29834070     -1.17794877
H       3.66072417     -0.13501511     -1.27020300
