17
b3lypvtz=-215280.0625188
C      -1.27938858     -1.77423405     -0.09457253
N      -0.85361431     -0.40360908      0.11664713
C      -1.70984437      0.64248368     -0.12255579
N      -1.53162303      1.90054398     -0.01241860
C       0.49447309     -0.18766020      0.60767857
C       1.52805102     -0.00212380     -0.51025642
O       2.85026745      0.08586847      0.00452945
H      -0.65628696     -2.28421361     -0.83481828
H      -1.23974456     -2.34957267      0.83554262
H      -2.30531100     -1.78447930     -0.45795500
H      -2.69085755      0.30025871     -0.45239683
H      -0.58971560      2.14244668      0.28963920
H       0.50206132      0.68628362      1.26574047
H       0.78987183     -1.04325782      1.21812820
H       1.52002945     -0.87204011     -1.16782590
H       1.27176575      0.87096696     -1.11864706
H       2.96520205      0.94248455      0.42649077
