13
b3lypvtz=-192835.52931539
C       2.59380470      1.34954353      1.36598274
C       2.09284211      0.34819497      0.92099142
C       1.53500537     -0.84350747      0.39980642
C       0.23814725     -1.00598255      0.06000720
C      -0.79462061     -0.01134784      0.16525754
C      -2.06424793     -0.25222463     -0.19426355
O      -3.09831020      0.61693132     -0.13082569
H       3.03665272      2.23050009      1.75789220
H       2.21622469     -1.67608633      0.27146414
H      -0.05706011     -1.97470325     -0.32886337
H      -0.52103689      0.96569412      0.55186011
H      -2.38480845     -1.20985789     -0.58490209
H      -2.79249265      1.46264593      0.21929294
