14
b3lypvtz=-180363.60598182
C       3.47470758      0.49468648      0.05229200
N       2.51880232     -0.33646713     -0.06127313
C       1.21662280      0.14277567     -0.00084428
C       0.17492864     -0.69900057     -0.11466076
C      -1.18059093     -0.30522597     -0.06543148
C      -2.34904535     -0.00881139     -0.02808740
C      -3.75486671      0.35819827      0.02106562
H       4.49850003      0.13625564      0.00744280
H       3.32110753      1.57032714      0.19536816
H       1.05452144      1.21246447      0.14027538
H       0.39305755     -1.75253334     -0.25372957
H      -4.36474769     -0.34226955     -0.55304186
H      -3.91541098      1.35791166     -0.38771765
H      -4.12493722      0.35604062      1.04913016
