16
b3lypvtz=-204435.52509744
C      -1.47971350     -1.07995518     -0.62736689
C      -0.94784190     -0.00475195      0.27966164
C      -1.79935411      1.12900721      0.68598931
O      -1.54294268      0.06783581      1.59795921
C       0.52329709      0.21469328      0.31490440
N       1.30930129     -0.33807129     -0.50157362
C       2.72691716     -0.06263148     -0.39029346
H      -2.56230166     -1.15009862     -0.53078977
H      -1.22199439     -0.86476318     -1.66419348
H      -1.03806235     -2.04341215     -0.37236948
H      -1.35040594      2.08412556      0.94319496
H      -2.81126439      1.18022388      0.29572758
H       0.86771738      0.88461710      1.11590999
H       3.26379220     -1.00354266     -0.25450800
H       2.98063744      0.61553657      0.43508438
H       3.08221834      0.37118709     -1.32733680
