12
b3lypvtz=-226228.33407095
C       1.79454702      0.67055039     -0.19045954
O       0.42059167      0.56300586      0.14016489
C      -0.14600649     -0.66378805     -0.21819821
C      -1.61453498     -0.69154704      0.15678792
O      -2.31239079     -1.65685174     -0.01068044
C      -2.17801189      0.53928805      0.74449190
N      -2.67816337      1.46832851      1.20422304
H       1.95219924      0.57380709     -1.27046418
H       2.12135831      1.65577606      0.13244297
H       2.38826549     -0.09329238      0.32403657
H       0.33596018     -1.51222667      0.28747847
H      -0.08381439     -0.85305006     -1.29982339
