18
b3lypvtz=-210213.5222804
C      -3.15355950      0.03396065      0.20824377
C      -1.87537930     -0.54412313     -0.40239653
C      -0.62294001     -0.09705222      0.31849862
C       0.04800165      1.20397001     -0.02737353
C       0.71476394     -0.10159601     -0.37740190
C       1.93281906     -0.54237206      0.36738080
F       3.07739698      0.09671768     -0.12750001
H      -3.14287191      1.12509700      0.18288204
H      -3.26395688     -0.27124783      1.25104948
H      -4.03861254     -0.30607649     -0.33182899
H      -1.80669191     -0.25157278     -1.45415182
H      -1.92851478     -1.63723189     -0.39286015
H      -0.60025846     -0.36384960      1.37057762
H       0.48133056      1.79392925      0.76919456
H      -0.36620732      1.78756727     -0.83889293
H       0.70701973     -0.37993833     -1.42480648
H       2.10169685     -1.61711591      0.26552455
H       1.85693885     -0.29427360      1.42899192
