11
b3lypvtz=-236315.25525832
C       1.61914399     -0.03658276      0.21076116
O       0.92456402      1.17024562     -0.04396841
C      -0.40750727      0.90682521     -0.17642839
N      -1.25217337      1.80306018     -0.40616306
C      -0.57708470     -0.56734193      0.00430053
N      -1.67226160     -1.17813880     -0.05092911
O       0.65902922     -1.09348353      0.23342551
H       2.11279196      0.02000884      1.18175319
H       2.33886695     -0.22329905     -0.58724774
H      -2.17630754      1.37801876     -0.46509874
H      -1.56906168     -2.17931254      0.09959509
