16
b3lypvtz=-204436.68560091
C       2.68810685      0.12551794     -0.19452181
C       1.30454173     -0.32544417     -0.56837656
C       0.09040277      0.28900941     -0.02441244
O       0.51951252      0.58159047     -1.35962866
C      -1.21217829     -0.46483382      0.11534240
C      -2.41608659      0.42884857     -0.05099406
N      -3.36709401      0.30763900     -0.87505464
H       2.68232639      1.16600820      0.12979449
H       3.08740022     -0.49142973      0.61354044
H       3.36249223      0.03777446     -1.04825062
H       1.22508983     -1.35930564     -0.89893238
H       0.21917130      1.12006274      0.66684637
H      -1.24774025     -1.27955127     -0.61049584
H      -1.24570836     -0.90574256      1.11912788
H      -2.46040483      1.28088251      0.63414968
H      -3.22983152     -0.51102610     -1.47290160
