17
b3lypvtz=-217683.18161024
C      -2.71300635     -0.22072750      0.54715169
C      -1.57032627     -0.38007054     -0.10959635
C      -0.33291037      0.42297261      0.15765735
O      -0.01029898      1.25210855     -0.97595815
C       0.90894927     -0.45752602      0.38334986
C       2.11229651      0.35298491      0.85694384
O       1.20735164     -1.19297481     -0.79900495
H      -2.81392188      0.51026140      1.34173409
H      -3.58668988     -0.81885516      0.32333335
H      -1.48316385     -1.12045313     -0.89747879
H      -0.48843107      1.05091085      1.04280440
H      -0.82164421      1.66190213     -1.29025848
H       0.65529769     -1.20587297      1.13702644
H       1.91205729      0.82524191      1.82130053
H       2.97538284     -0.30303390      0.96609114
H       2.35746253      1.13522144      0.13785214
H       1.22981010     -0.55144577     -1.52018013
