18
b3lypvtz=-205205.05111611
C       2.12004198     -0.98021462     -0.25513312
C       1.06664741      0.00923521     -0.68705174
C       0.96413837      1.36698198     -0.01245930
C      -0.10324306      0.35264307      0.21602864
O      -0.14540236     -0.21396893      1.49953783
C      -1.48417265      0.52845269     -0.37063634
N      -2.18357966     -0.76500289     -0.32466084
H       1.87412959     -1.99026139     -0.59173822
H       2.20142821     -1.00644135      0.83077880
H       3.09824301     -0.72242898     -0.66729321
H       0.84932031      0.00872256     -1.75045098
H       1.62936417      1.54952752      0.82116484
H       0.74072330      2.23883250     -0.61386691
H      -0.82635662     -0.90162362      1.44352786
H      -2.04392119      1.22897246      0.25362691
H      -1.41228125      0.96209399     -1.37518893
H      -3.18399957     -0.64773735     -0.41579002
H      -1.87903397     -1.36738085     -1.08001827
