13
b3lypvtz=-234612.1225834
C       1.33544787      1.51191253     -0.00000850
C       0.50171617      0.26491265      0.00003030
N       0.95986220     -0.92631485      0.00004298
O       2.37636173     -0.90051114      0.00000324
N      -0.87679717      0.46974545      0.00005138
N      -1.77442059     -0.52336965      0.00005003
N      -2.94837332     -0.09847571      0.00009742
H       1.98376233      1.52515082     -0.87594831
H       1.98381956      1.52516911      0.87588836
H       0.71998107      2.40999793      0.00000078
H       2.58811061     -1.83844164      0.00002052
H      -1.24726431      1.41400196      0.00009061
H      -3.54269715     -0.92939246      0.00008718
