19
b3lypvtz=-171830.23556997
C       3.13116985      0.00001559     -0.04753540
C       1.87543497      0.00002815     -0.48120375
C       0.66122165     -0.00001384      0.37967380
C      -0.43784437     -1.07639704      0.13142908
C      -1.51965993      0.00000643      0.40564801
C      -2.79207112      0.00006966     -0.42147325
C      -0.43782325      1.07642559      0.13157099
H       3.96993099      0.00004802     -0.73143259
H       3.36496655     -0.00003094      1.01109226
H       1.68985750      0.00007572     -1.55357971
H       0.95237293     -0.00008504      1.43201164
H      -0.41960902     -1.96689643      0.75970917
H      -0.44957934     -1.38797440     -0.91583272
H      -1.77164727     -0.00006044      1.46917782
H      -3.40270980     -0.88156990     -0.21195282
H      -2.56357750      0.00012583     -1.49015290
H      -3.40268641      0.88170204     -0.21185488
H      -0.41956764      1.96684007      0.75997066
H      -0.44955180      1.38814893     -0.91564741
