13
b3lypvtz=-237089.95159738
N      -0.34156763      1.56926048      0.01396620
C      -0.18873566      0.31288660      0.02393504
C      -1.31095560     -0.70337390      0.08144516
O      -2.58834022     -0.08865145      0.02719557
C       1.21336097     -0.27168416     -0.00866638
N       2.19767102      0.64982112     -0.01144196
O       1.38286543     -1.48053093     -0.02908772
H      -1.33837052      1.79706820      0.05784419
H      -1.24624624     -1.24419873      1.02757885
H      -1.16903036     -1.44824381     -0.70467523
H      -2.84574133      0.01469153     -0.89343758
H       3.15656519      0.35165005     -0.02941801
H       1.95163394      1.62571601      0.00773088
