12
b3lypvtz=-202914.89748498
C       2.15121451      1.17751401     -0.19372425
C       1.47304476     -0.06481301      0.37661470
O       2.02115890     -1.19373041     -0.29914598
C       0.01493543     -0.01035962      0.22578527
C      -1.18466612      0.01183366      0.10626409
C      -2.54412289      0.03755196     -0.03034721
N      -3.69483461      0.05809600     -0.14356348
H       1.94971327      1.25576207     -1.26087162
H       1.78910122      2.07598352      0.30405402
H       3.22637122      1.09377723     -0.04181597
H       1.68856032     -0.12506583      1.45124259
H       1.60934898     -1.99570558      0.03988184
