20
b3lypvtz=-182659.2252142
C      -3.32095887      0.45761460     -0.06657634
C      -2.13972912     -0.44563027      0.26057960
N      -0.89611981      0.10047117     -0.26839228
C       0.28450392     -0.69840577      0.03650858
C       1.53407230     -0.05692970     -0.50998610
C       2.26691075      0.98291232      0.29920447
C       2.87521310     -0.37896056      0.08547919
H      -4.25386318      0.02747715      0.30062490
H      -3.20490099      1.43982074      0.39853345
H      -3.40466066      0.60398671     -1.14385841
H      -2.09531739     -0.61534787      1.35032511
H      -2.29203169     -1.42868747     -0.19474104
H      -0.76059746      1.04389495      0.07852050
H       0.14686761     -1.68491159     -0.41823758
H       0.41302181     -0.87336451      1.12004402
H       1.50920993      0.10688599     -1.58028692
H       2.70280422      1.82686774     -0.21703205
H       1.89019615      1.21154756      1.28807027
H       2.90482387     -1.05368473      0.93082668
H       3.72386152     -0.46280848     -0.57887407
