12
b3lypvtz=-244694.06757044
C      -0.37619550     -0.01804967      0.40188505
N      -1.19296613      0.92081892      0.18230307
N      -2.54703689      0.64985543      0.38936317
N       0.99706193      0.24243022      0.29540174
N       1.86951331     -0.74705395      0.48746424
N       3.09481794     -0.55086002      0.39261103
O      -0.69937728     -1.28256973      0.73535648
H      -2.78971107     -0.31664648      0.19119625
H      -3.07797519      1.26791698     -0.20681968
H       1.29289961      1.18600429      0.06080302
H       3.30352972      0.43854980      0.15596426
H       0.12543954     -1.79039579      0.81997315
