13
b3lypvtz=-213734.13656697
C       3.13422744      0.24924940     -0.00014694
C       2.01368976     -0.47244572     -0.00021061
N       0.77576614      0.17939733      0.00025268
N      -0.19188529     -0.62076678      0.00020132
C      -1.45890116     -0.01882610     -0.00015742
C      -2.52492841     -0.83169958     -0.00019260
O      -1.49385226      1.33577744      0.00001286
H       3.08581466      1.32960467     -0.00002585
H       4.10569192     -0.22341235     -0.00020143
H       2.00245445     -1.55923261     -0.00058560
H      -3.53727189     -0.45293260     -0.00005228
H      -2.36610483     -1.89731319     -0.00034518
H      -2.41251253      1.62511609     -0.00007396
