16
b3lypvtz=-204436.91159217
C       2.50520248     -1.22393640     -0.28820811
N       1.89013859     -0.29225128      0.29549803
C       0.48794293     -0.49542986      0.61036725
C      -0.40874204      0.62049739      0.12755519
C       0.03619227      1.71656159     -0.47899732
C      -1.87913007      0.40180791      0.37836348
O      -2.39698274     -0.73913905     -0.31388725
H       2.03405457     -2.17252556     -0.57650060
H       3.55988879     -1.10185250     -0.52594538
H       0.40322946     -0.54144808      1.70345492
H       0.10585045     -1.45233270      0.22749139
H       1.09021344      1.87755995     -0.65461676
H      -0.65047684      2.49041418     -0.79949343
H      -2.06080994      0.19312289      1.43543353
H      -2.43743906      1.30594059      0.11672424
H      -2.27903229     -0.58688906     -1.25733919
