19
b3lypvtz=-192725.12424433
C      -2.01475360     -1.28699372      1.14337277
C      -1.29608956     -0.65180559     -0.04679685
C      -0.69726119      0.71793194      0.27598964
C       0.01389524      1.39262208     -0.90301079
N       1.20588888      0.71557402     -1.39434586
N       2.27510015      0.73991255     -0.56611148
C       3.19224674     -0.13378573     -0.69831786
H      -2.43275174     -2.26115002      0.88430074
H      -1.33238998     -1.43087367      1.98369843
H      -2.83541123     -0.65526580      1.49041390
H      -1.99582801     -0.55235057     -0.88346163
H      -0.50614713     -1.32792938     -0.38813590
H       0.01207963      0.62757029      1.10343508
H      -1.49286664      1.38694415      0.62065533
H      -0.66956488      1.48663618     -1.75101223
H       0.31977620      2.40008748     -0.61956265
H       1.04294191     -0.16663574     -1.87277886
H       4.06466139     -0.05638262     -0.06401122
H       3.14647380     -0.94410585     -1.43116830
