13
b3lypvtz=-237072.82721524
N      -2.27873322     -0.22075416      0.43691739
C      -1.36942528      0.62384499     -0.20302880
C      -0.06541494      0.34283344     -0.36841677
O       0.83306090      1.29352115     -0.89196486
N       0.44643482     -0.88631871     -0.03398562
C       1.67558096     -1.21496468     -0.07891437
O       2.74516315     -0.47992628     -0.43872517
H      -3.18313184     -0.26064132     -0.01083745
H      -1.89533014     -1.14732952      0.57126903
H      -1.75733577      1.58935437     -0.50369915
H       0.45545619      2.17510556     -0.81867880
H       1.96745578     -2.22007956      0.20377376
H       2.42631939      0.40525471     -0.69030918
