16
b3lypvtz=-204471.11853921
C       2.50706410     -0.60917461     -0.00001662
C       1.18191783     -0.76830393     -0.00001400
N       0.23142622      0.24928731     -0.00000801
C       0.69570380      1.63113408     -0.00000255
C      -1.13962721      0.01446019     -0.00000884
C      -1.61446060     -1.42605440     -0.00001629
O      -1.93795098      0.93271202     -0.00000570
H       2.99234949      0.35456331     -0.00001441
H       3.14060480     -1.48289920     -0.00002125
H       0.77025955     -1.76489469     -0.00001672
H      -0.17267754      2.27925931      0.00000437
H       1.30168484      1.82522183     -0.88674197
H       1.30169200      1.82521207      0.88673405
H      -1.26911383     -1.96678545     -0.88220192
H      -1.26911171     -1.96679640      0.88216176
H      -2.69969976     -1.40342444     -0.00001490
