14
b3lypvtz=-229609.55320218
C      -1.43532880      1.35940722     -0.31781288
C      -1.21499224      0.06576360     -0.07242216
C      -2.31881274     -0.90299543      0.24705389
N       0.04653289     -0.54929130     -0.09255477
C       1.28558343      0.02627130      0.05266513
N       1.67920131      1.17050552      0.36927681
F       2.21367727     -0.92394849     -0.20543954
H      -2.44119920      1.74568732     -0.26022145
H      -0.65885030      2.04827082     -0.61039095
H      -2.18572799     -1.33312373      1.24266153
H      -2.32907813     -1.73069109     -0.46837204
H      -3.28772747     -0.41221026      0.20510365
H       0.06149741     -1.55239489     -0.17803425
H       0.91107958      1.78907941      0.59885302
