16
b3lypvtz=-204473.59410801
C       2.95781827     -0.15294131      0.31142659
C       1.78877663     -0.68291009     -0.02382225
C       0.55062496      0.15151578     -0.08572294
O       0.54170039      1.34717895      0.16357224
N      -0.56882927     -0.53662941     -0.45525786
C      -1.88142922      0.08280584     -0.55333014
C      -2.75568536     -0.15627220      0.67685644
H       3.02379257      0.90161382      0.54586014
H       3.86036606     -0.74682955      0.35794125
H       1.70684510     -1.73827243     -0.26232419
H      -0.49193216     -1.52749229     -0.60826501
H      -1.71040806      1.14855243     -0.69093015
H      -2.37531290     -0.29646415     -1.45055033
H      -2.28450309      0.25963812      1.56724796
H      -2.92477550     -1.22199823      0.84361690
H      -3.72859142      0.32199773      0.54938134
