12
b3lypvtz=-223836.21499468
N      -2.83150250      0.68297601      0.00006731
C      -2.24313363     -0.43917409     -0.00014604
C      -0.76992754     -0.64408020     -0.00017173
N       0.01347739      0.36006503     -0.00010278
C       1.40301201      0.16783394     -0.00005472
N       2.24451031      1.11346672      0.00006273
O       1.81770713     -1.12218259     -0.00007160
H      -2.13288458      1.43335617      0.00011047
H      -2.84776979     -1.34598114     -0.00014832
H      -0.40577341     -1.67177981     -0.00012769
H       1.75955504      2.00607515      0.00007173
H       2.78397458     -1.09756719     -0.00000137
