20
b3lypvtz=-182623.0622761979
C      -1.54720091     -0.01372790      1.62350395
C      -0.94562775      0.03456380      0.23166949
C      -1.83929946     -0.55980256     -0.84723380
N       0.39214636     -0.70468261      0.24214436
H       0.68482499     -0.80176168     -0.75040665
H       0.21835660     -1.64583981      0.59473501
C       1.50207743     -0.07633672      0.97681735
C       2.32559563      0.70459906      0.14868333
C       2.07745523      1.15994230     -1.11558198
H      -2.43880079      0.61132299      1.66780512
H      -0.82412362      0.35285923      2.35132913
H      -1.84020823     -1.03340198      1.89272361
H      -0.67271788      1.05785634     -0.01829772
H      -1.35998054     -0.52578573     -1.82805399
H      -2.09668656     -1.59887152     -0.62510067
H      -2.77006837      0.00284633     -0.91335221
H       1.90802828     -0.70675930      1.75114594
H       3.28806679      0.95774089      0.58510195
H       1.11553039      1.06458491     -1.60751794
H       2.82263241      1.72065395     -1.65904505
