16
b3lypvtz=-204434.31982744
C       0.20363054     -0.96989938      0.75830012
C      -0.74096675     -0.86704750     -0.43296980
C      -1.85790022      0.09939713     -0.37378504
N      -0.61248570      0.48447495     -1.04817767
C       0.32689290      1.24580025     -0.18645266
C       1.18694905      0.19934816      0.53757404
O       2.31349060     -0.19381004     -0.24382744
H       0.74156052     -1.91561537      0.78693116
H      -0.32589084     -0.85701333      1.70678067
H      -0.79227938     -1.69539710     -1.12890732
H      -2.71631422     -0.01184824     -1.02537397
H      -2.07594962      0.55759988      0.58654987
H       0.94700055      1.89259203     -0.80618133
H      -0.21090988      1.87518718      0.52862814
H       1.60745828      0.57527549      1.46987085
H       2.00571420     -0.41904410     -1.12895964
