16
b3lypvtz=-181105.38018693
C       2.92456666     -0.90288133     -0.02768594
C       2.09817899     -0.04402228      0.11644652
C       1.06845049      0.99675907      0.25147181
N      -0.14595702      0.79061083     -0.53991706
C      -0.91384198     -0.37136292     -0.17575126
C      -1.93926624     -0.20971256      0.91226751
C      -2.37304013     -0.36449311     -0.52337470
H       3.65898503     -1.65958491     -0.14819649
H       0.77796803      1.07975941      1.30133150
H       1.50034698      1.96017602     -0.02946975
H       0.09101826      0.75761939     -1.52473228
H      -0.40882435     -1.33432561     -0.21875022
H      -2.09824567     -1.03424163      1.59290276
H      -2.03458603      0.77343096      1.35115531
H      -2.74976806      0.51754312     -1.02157064
H      -2.83016797     -1.29493344     -0.82959705
