13
b3lypvtz=-237066.54996187
N      -1.22522840      1.13688032      1.21463863
C      -0.57789656      0.30127250      0.28817106
C      -1.16036924     -0.09054534     -0.85676150
O      -0.45211337     -0.73217869     -1.86417224
N       0.69927803     -0.06704213      0.72322928
C       1.68665880     -0.11475768     -0.06348778
O       2.89310838     -0.53752190      0.35009348
H      -0.99905380      0.87746026      2.16511357
H      -2.22451880      1.19693064      1.08173630
H      -2.19716760      0.14787650     -1.06635365
H      -0.94385598     -1.50970477     -2.14692337
H       1.69672754      0.16847686     -1.11039044
H       2.80443100     -0.77694657      1.28520665
