18
b3lypvtz=-205217.25109883
C      -2.55447935      0.36060335      0.76899098
C      -1.08178365      0.09383411      1.05628576
C      -0.27918650     -0.51173079     -0.08045295
N      -0.73289098     -0.87396619     -1.21031782
C       1.20620144     -0.66009159      0.16993354
C       1.99062413      0.55157683     -0.35302633
O       3.37965563      0.46832853     -0.05988558
H      -3.04139863      0.79173387      1.64388235
H      -3.08791945     -0.55799094      0.51761302
H      -2.68181590      1.06120405     -0.05819767
H      -0.58399039      1.01937153      1.36474792
H      -0.98171824     -0.57646177      1.91701483
H      -1.73518324     -0.70047371     -1.28547720
H       1.41535477     -0.77394649      1.23555565
H       1.55429984     -1.55546105     -0.34802026
H       1.64685480      1.46693842      0.13138970
H       1.81403454      0.65816823     -1.42775097
H       3.75334118     -0.26163639     -0.56318496
