18
b3lypvtz=-181881.76266277
C       2.41022036     -0.49490270     -0.46004122
C       1.81725245      0.87911956     -0.28214838
C       1.18648255     -0.30666561      0.39554626
C      -0.15870125     -0.82502769     -0.06509647
C      -1.32432511     -0.04165580      0.49137167
C      -2.64282239     -0.00042147     -0.18108246
N      -1.73390851      1.15708636     -0.25694973
H       3.35034977     -0.71534212      0.02669780
H       2.28322888     -0.98051323     -1.41879998
H       1.28247168      1.31586813     -1.11381088
H       2.35784752      1.59245508      0.32478872
H       1.34984753     -0.37953268      1.46547166
H      -0.21088770     -0.78965421     -1.15651381
H      -0.26511866     -1.87654756      0.22390731
H      -1.34575352      0.03121616      1.57552438
H      -2.78329947     -0.52687111     -1.11767478
H      -3.53271413      0.07231978      0.43300460
H      -2.04016999      1.88906911      0.37437937
