13
b3lypvtz=-237082.68995107
C       2.71996409     -0.00205360      0.00003773
O       1.46524323     -0.67492437     -0.00000411
C       0.33901591      0.10429652     -0.00005917
N       0.22804068      1.35825039     -0.00008738
N      -0.74405811     -0.77710048     -0.00007624
C      -2.09954415     -0.49984663     -0.00006197
O      -2.62573812      0.57786564      0.00018191
H       2.83561979      0.61609314      0.89281550
H       3.47511212     -0.78280228      0.00008266
H       2.83569530      0.61606356     -0.89275082
H       1.12395366      1.83192009     -0.00005827
H      -0.48841431     -1.75146399     -0.00010989
H      -2.66938308     -1.44819801      0.00013006
