20
b3lypvtz=-182668.67122726
C       1.84813926     -1.34916481     -0.07686225
C       1.03132354     -0.47894485     -0.65835238
C       0.06472332      0.47752911      0.00642687
C       0.34899820      1.89510022     -0.52870481
C       0.17626988      0.47372925      1.53470090
C      -1.37246559      0.08728239     -0.42622716
N      -1.76283273     -1.23066344      0.07031082
H       1.90827237     -1.46003745      0.99776664
H       2.49718481     -1.98411133     -0.66621078
H       1.02841001     -0.42599250     -1.74582842
H      -0.36140250      2.61315698     -0.11321511
H       0.26960752      1.93409131     -1.61733981
H       1.35467851      2.21711082     -0.25491740
H      -0.51304344      1.20589533      1.96015796
H       1.18519531      0.73917709      1.85476632
H      -0.08260042     -0.49894899      1.94830969
H      -1.43484874      0.18295800     -1.52107602
H      -2.06511041      0.82127499     -0.00582236
H      -2.72578154     -1.43150776     -0.16738979
H      -1.19078535     -1.95364936     -0.35046290
