17
b3lypvtz=-217672.29373101
C       2.40313661     -0.58780736      0.36940409
C       1.45824692      0.17912187     -0.56084111
C       0.02050758      0.20180361     -0.09050656
C      -0.71530214     -1.13007991     -0.09336024
O      -2.09485395     -0.99411830      0.17918021
C      -0.45731362      1.28359992      0.77357086
O      -0.78160250      1.27279150     -0.63118778
H       3.42895380     -0.52945425      0.00431563
H       2.38554516     -0.17465248      1.37959594
H       2.14095174     -1.64437654      0.43731638
H       1.79237597      1.21292736     -0.66369749
H       1.49062199     -0.25763312     -1.56353966
H      -0.30388810     -1.78999275      0.67163231
H      -0.55158882     -1.61056322     -1.06820914
H      -2.41055674     -0.26565031     -0.37110979
H      -1.29809185      1.10905322      1.43441238
H       0.22940896      2.06880478      1.07287798
