18
b3lypvtz=-205198.23975805
C       2.55487336      0.06276659      0.00369503
N       1.19266045     -0.41845727     -0.01362133
C       0.27207746      0.10853206     -1.04019256
C      -0.86425298      0.07414284      0.00287329
C      -1.73333197     -1.16925701     -0.04749541
O      -1.64087497      1.25995083     -0.02416653
C       0.27635050      0.01524811      1.05809803
H       2.62230811      1.16321625      0.05197432
H       3.07703618     -0.27056096     -0.89513076
H       3.08218576     -0.34836594      0.86653475
H       0.17028164     -0.50723812     -1.93650715
H       0.48633067      1.14633377     -1.32765209
H      -1.11541862     -2.06715957     -0.06539701
H      -2.36289515     -1.15743532     -0.93875222
H      -2.38115921     -1.22476352      0.83270908
H      -2.39433848      1.15079668      0.56530975
H       0.18104778     -0.67983520      1.89619029
H       0.49238247      1.02410078      1.43477752
