15
b3lypvtz=-214543.20825151
C       2.91408715      0.22847855      0.04668992
N       1.46608824      0.22701277      0.05132267
C       0.83802621     -0.86452988     -0.19060435
N      -0.53174207     -1.00911301     -0.21771985
C      -1.28096177      0.02613731      0.01763655
C      -2.76993779     -0.09655240     -0.00273111
O      -0.84142568      1.24260699      0.28845478
H       3.28085611      0.93847340     -0.69745560
H       3.28660370      0.55802506      1.01878451
H       3.33565867     -0.75897445     -0.17356990
H       1.38505518     -1.78862577     -0.39942100
H      -3.05942442     -1.11652939     -0.23415520
H      -3.17733334      0.19544143      0.96690804
H      -3.18665830      0.58715881     -0.74449868
H       0.17313410      1.18395858      0.27093722
