17
b3lypvtz=-194370.3996045
C       2.00887535     -0.63253964     -0.45396071
C       0.70487586     -0.13398385      0.11696061
C      -0.33831869     -1.15421016      0.59033756
C      -1.62131517     -0.70679345     -0.13022638
O      -1.47224442      0.69711103     -0.38771990
C      -0.09610578      0.97236248     -0.50185754
C       0.63618878      1.22572796      0.78663148
H       2.60017451      0.18772768     -0.86403297
H       1.83993913     -1.35536694     -1.25616005
H       2.61425551     -1.12154688      0.31362873
H      -0.45954819     -1.13646518      1.67496414
H      -0.05411463     -2.16794733      0.30536184
H      -1.73884456     -1.24302777     -1.07966034
H      -2.52871341     -0.84227577      0.45733988
H       0.19060567      1.47310846     -1.41869738
H       1.52504132      1.84345996      0.75291613
H       0.03241571      1.33771639      1.67761289
