11
b3lypvtz=-212944.44087523
C      -2.84207410      0.82955860      0.00896976
C      -1.96914520      0.01237422      0.12300769
C      -0.98710557     -1.00139667      0.26217600
N       0.28491544     -0.86108925      0.27786920
O       0.65946319      0.47227399      0.13623664
C       2.03536858      0.64646668      0.15217826
N       2.94792790     -0.19908162      0.27237359
H      -3.60505030      1.56139124     -0.09262418
H      -1.31985803     -2.02775891      0.37018631
H       2.22155239      1.70952301      0.03582464
H       2.57400574     -1.14226130      0.37023015
