14
b3lypvtz=-226977.76960198
C       1.58039408      1.22872688     -1.35883446
N       0.58697186      0.44415490     -1.36162500
C       0.47577489     -0.54800408     -0.37524541
C       1.47290562     -1.35664265      0.00299428
O      -0.77651166     -0.73511440      0.11836617
C      -1.81913583      0.18546076     -0.23956984
O      -2.96088195     -0.18087830      0.45493610
H       2.34560780      1.21896835     -0.57797164
H       1.68613137      1.94631660     -2.16806694
H       2.44980414     -1.26519092     -0.44217085
H       1.28994772     -2.15679012      0.70314325
H      -1.49232450      1.20340886     -0.00416936
H      -2.04673931      0.10490043     -1.30077920
H      -2.79224423     -0.08931631      1.39909290
