14
b3lypvtz=-226997.65739151
C      -2.54978224     -0.91813437      0.00523393
N      -1.10072569     -0.81411892     -0.01809166
C      -0.56959500      0.33179154     -0.00870774
O      -1.33601184      1.47527454      0.01035980
C       0.88458186      0.54549781     -0.01812756
C       1.75383755     -0.46886281      0.01507250
O       3.10028499     -0.37716936      0.00657533
H      -2.99326737     -0.36787271      0.84109668
H      -2.99789229     -0.52316158     -0.91241229
H      -2.82735309     -1.96725318      0.09367863
H      -0.77262372      2.25418049      0.05048890
H       1.25192469      1.56703736     -0.05698445
H       1.41278982     -1.49416329      0.05206586
H       3.37112432      0.54820247     -0.03087794
