13
b3lypvtz=-211334.45202313
C      -1.38059443     -1.19212442     -0.01357189
C      -0.28339826     -0.17795306      0.05900364
N       0.93841577     -0.53421103      0.12978912
C       1.99314594      0.39840089      0.15901971
N       3.13679969      0.11427766      0.62410735
N      -0.60977838      1.23219944      0.05520328
N      -1.82143854      1.45767979      0.19489672
H      -0.94365276     -2.18591659     -0.02231730
H      -1.98436660     -1.04208562     -0.91010274
H      -2.05855607     -1.08682153      0.83426141
H       1.81550595      1.38747577     -0.25526605
H       3.13557474     -0.85199210      0.96121569
H      -1.93765707      2.48107083      0.17411185
