15
b3lypvtz=-214507.38381095
N      -2.24479673      0.78771981     -0.50205448
C      -1.16981675      0.49895194      0.40957663
C      -0.64650882     -0.91783574      0.44047503
C       0.15994316      0.18402825     -0.18828100
O       1.27975165      0.69670756      0.49842730
C       2.45896266      0.02804764      0.36468384
N       2.73176475     -1.02099647     -0.27541288
H      -3.13800466      0.52465657     -0.10325559
H      -2.28553297      1.77687569     -0.71757475
H      -1.11805206      1.02818349      1.35856750
H      -0.30495678     -1.30276029      1.39058798
H      -1.11122145     -1.63613410     -0.22017594
H       0.24293076      0.21481279     -1.26765523
H       3.22435044      0.55461659      0.92767942
H       1.92108679     -1.41677372     -0.74758782
