17
b3lypvtz=-215264.58614597
C      -2.17965317      1.29574583     -0.35272275
C      -2.00873508      0.07919125      0.53956554
O      -1.41020707     -1.02986188     -0.16090744
C      -0.06613094     -1.06147267     -0.25642269
N       0.70370170     -0.17272075      0.20957151
N       2.07839780     -0.39519231      0.13886113
C       2.81969056      0.85025276      0.00155920
H      -1.21394087      1.69138513     -0.66157143
H      -2.75958905      1.04371686     -1.24127825
H      -2.71212247      2.07829103      0.19168277
H      -1.40202230      0.31482125      1.41393248
H      -2.97510426     -0.30262267      0.86628765
H       0.26399042     -1.96577657     -0.77006956
H       2.31961088     -1.04610953     -0.60582361
H       3.88449443      0.61641093     -0.01236714
H       2.61585818      1.47906160      0.86715665
H       2.56877223      1.41907375     -0.90341604
