11
b3lypvtz=-212991.47869674
C       2.01954713     -1.01236839      0.02851230
O       0.64555970     -1.00538080     -0.36423694
C      -0.14460353     -0.10433906      0.36537394
C       0.18057250      1.31093325      0.06138146
N       0.48867766      2.39524132     -0.16219515
C      -1.55936533     -0.38102312      0.06946775
N      -2.66912054     -0.60069380     -0.12705087
H       2.12126612     -1.27450432      1.08628697
H       2.49177340     -0.04454350     -0.15693108
H       2.49942927     -1.77217718     -0.58134593
H      -0.00220438     -0.23925740      1.44795155
