11
b3lypvtz=-238687.57755903
O       1.23314187      2.01721732      0.29329943
C       0.28157316      1.47573075     -0.20713989
C       0.05612541     -0.00102540     -0.16666260
C       1.23283248     -0.90060629      0.12683631
O       1.16616785     -2.09868562      0.05902429
C      -1.30350016     -0.47681613      0.20779834
O      -0.88708343     -0.48389091     -1.13498856
H      -0.50987277      2.03624041     -0.74330178
H       2.15744436     -0.37195488      0.41186917
H      -1.36147313     -1.44874462      0.68624773
H      -2.06535563      0.25243536      0.46701757
