16
b3lypvtz=-204450.47510904
C       3.21674839      0.23336961      0.26699953
C       2.12653670     -0.45949763     -0.04979917
N       0.85847405      0.12770627     -0.06208250
C      -0.15442299     -0.57306457     -0.36979558
C      -1.52493237      0.04282805     -0.38720665
C      -2.49288744     -0.72398641      0.51795061
O      -1.48267374      1.40204524     -0.01733226
H       4.19056529     -0.23428049      0.27202471
H       3.14913448      1.28101076      0.52646519
H       2.19189946     -1.51656920     -0.31148595
H      -0.08000690     -1.63508334     -0.63283546
H      -1.89361386     -0.03969727     -1.42264525
H      -3.47730732     -0.26064573      0.46573969
H      -2.58451515     -1.76688646      0.20729751
H      -2.14962859     -0.68930528      1.55236688
H      -0.54608003      1.61418745      0.12136570
