18
b3lypvtz=-233522.85093835
C      -3.04631046     -0.66999413      0.33087897
C      -2.04014305      0.12286704     -0.47792991
O      -0.83180304      0.21457681      0.25864325
C       0.18286856      0.94427594     -0.40871177
C       1.44529204      0.90940551      0.43765790
C       2.03537172     -0.47794295      0.58394870
F       2.46940741     -0.94614527     -0.66358029
H      -3.98947160     -0.75033443     -0.21169892
H      -2.67509132     -1.67622920      0.52690580
H      -3.23872103     -0.18328466      1.28739594
H      -2.42407159      1.13059039     -0.68983259
H      -1.85094391     -0.36288161     -1.44481893
H       0.37837718      0.50710603     -1.39592290
H      -0.13831829      1.98315349     -0.56270772
H       2.19278757      1.57171967     -0.00560452
H       1.21812850      1.29425672      1.43570310
H       1.29518213     -1.18525174      0.95818331
H       2.90269616     -0.47159460      1.24654354
