13
b3lypvtz=-237036.98853649
C       0.98155315     -0.62750980     -0.02802470
C      -0.39887823     -0.04642796     -0.16825344
N      -0.50415741      1.20426619     -0.41860768
O      -1.81693843      1.65025970     -0.56085717
C      -1.55431348     -0.98149722     -0.04522835
O      -1.40054766     -2.16277060      0.16524587
N       2.00551982      0.39221857      0.14103908
H       0.97541017     -1.28783699      0.84215460
H       1.13234196     -1.29062336     -0.89455403
H      -1.70107983      2.59278246     -0.71754921
H      -2.55452103     -0.54173545     -0.15930112
H       1.91027995      1.11648577     -0.55965268
H       2.92533102     -0.01761132      0.04474044
