16
b3lypvtz=-225337.93031873
C      -2.77721716      0.02906294     -0.02518577
N      -1.36954363      0.39270826      0.09580194
N      -0.55366833     -0.74052102     -0.12061176
C       0.69419694     -0.60768470      0.07293267
O       1.50509213     -1.67476219     -0.14073168
C       1.42787450      0.63061589      0.51613486
N       1.33034353      1.66236593     -0.52100294
H      -2.97851457     -0.27636340     -1.05069552
H      -3.07337877     -0.78871728      0.64212987
H      -3.37995033      0.91002968      0.19719298
H      -1.19523964      0.77549776      1.02203863
H       0.93747107     -2.40195671     -0.43471994
H       1.02682902      0.93518193      1.49722082
H       2.47420028      0.37135693      0.66819587
H       1.75698976      2.52155153     -0.19679749
H       0.35277220      1.85633345     -0.70995754
