15
b3lypvtz=-216922.64708697
C      -1.05490897      1.70573047      0.36415667
C      -0.59510136      0.34415773     -0.08876488
C       0.59342845     -0.21105709      0.57887281
C       1.63920836     -0.77774198     -0.03213028
O       2.74266847     -1.30056275      0.57070785
C      -1.28812789     -0.32690549     -1.01795055
O      -1.03876787     -1.58264166     -1.48288462
H      -1.96872969      2.00859292     -0.14770559
H      -0.29259419      2.46727687      0.17774576
H      -1.25758482      1.71698867      1.43989363
H       0.63174960     -0.10757942      1.66364642
H       1.71885713     -0.85447979     -1.10918831
H       2.65925868     -1.21226804      1.52763995
H      -2.16606147      0.09581333     -1.48825054
H      -0.32339442     -1.96532377     -0.95578832
