18
b3lypvtz=-181879.96224397
C      -1.07928379     -1.64934336      0.42179056
C      -0.57687987     -0.28242133      0.83305528
C       0.83738689      0.18427720      0.35494378
C       1.61009682     -0.73341381     -0.58087163
C       0.11146069      1.33735968     -0.33339353
C      -0.75374555      2.08461612      0.59185714
N      -1.26273020      0.81570396      0.04528021
H      -2.13039515     -1.74842421      0.69714618
H      -0.51957773     -2.44167059      0.92293665
H      -1.00531938     -1.80010833     -0.65469231
H      -0.73233859     -0.14899223      1.90766163
H       1.49769934      0.50047699      1.16672061
H       1.01500357     -1.03355249     -1.44407540
H       2.49909815     -0.22235075     -0.95694600
H       1.94325961     -1.63808771     -0.06944922
H       0.32379796      1.68769064     -1.33710414
H      -1.27676148      2.95090087      0.20747907
H      -0.50087129      2.13733936      1.64656111
