16
b3lypvtz=-181120.44422956
C       2.18028985     -1.71630315      0.02259872
C       1.60135490     -0.66221047      0.04798646
C       0.87611380      0.56838425      0.10399096
C       1.46486359      1.72405422     -0.22273540
C      -0.56978061      0.48941143      0.54293225
C      -1.47312206     -0.23327426     -0.46170415
N      -2.84923264     -0.27229337      0.04292207
H       2.70338270     -2.63925486     -0.00539214
H       0.91841787      2.65654935     -0.17446763
H       2.49752595      1.76450921     -0.53904824
H      -0.62147334     -0.03679230      1.50170646
H      -0.95768648      1.49514887      0.70530982
H      -1.47482867      0.32589760     -1.39992684
H      -1.05190020     -1.22266236     -0.68028972
H      -3.47213353     -0.64959151     -0.66127554
H      -2.91190512     -0.89304965      0.84253993
