13
b3lypvtz=-239653.65538326
C      -2.41683050     -0.57516091      0.71334849
N      -1.37034471     -0.30109854     -0.25327761
N      -0.12960611     -0.66472572      0.10714004
C       0.87532616     -0.15544298     -0.48412261
C       2.23530809     -0.56208455     -0.17509913
N       3.24157613     -0.04598648     -0.75604937
F       0.71411014      0.79500049     -1.43510829
H      -3.38151118     -0.40718808      0.23631976
H      -2.34938970      0.05227619      1.60896539
H      -2.35365737     -1.61888137      1.01550695
H      -1.44498844      0.56923062     -0.76602005
H       2.27471735     -1.33695383      0.59384320
H       4.10529012     -0.45627495     -0.40544676
