14
b3lypvtz=-226990.57552039
N       1.79336841      0.59609358      0.94908280
C       1.60630680     -0.33564639      0.11362180
O       2.51513813     -1.06337993     -0.58336748
O       0.39720127     -0.79223101     -0.23288458
C      -0.71804785     -0.14377665      0.35601548
C      -2.02603064     -0.44822894     -0.28417766
C      -1.40278862      0.92621238     -0.42777564
H       2.77532452      0.80237053      1.09676040
H       3.39785083     -0.76603634     -0.34060642
H      -0.63648881     -0.04669097      1.42826013
H      -2.88910915     -0.57184954      0.35459776
H      -2.00553381     -1.09091419     -1.15280362
H      -1.82770640      1.75954470      0.11369723
H      -0.97948468      1.17443277     -1.39062020
