17
b3lypvtz=-243587.24134159
C       0.96696826     -0.68683067     -0.48442552
C       2.26152130     -0.54460960      0.30171664
O       2.66834974      0.81812534      0.43037607
N      -0.11572283      0.03851337      0.16947385
C      -1.42027444     -0.16026959     -0.44380140
C      -2.47380651      0.66003886      0.26066568
F      -2.19476292      2.02379128      0.09814162
H       0.70308022     -1.74820175     -0.52498359
H       1.13344630     -0.35471089     -1.52131498
H       2.14478962     -1.00574739      1.28691123
H       3.06701296     -1.06049466     -0.22378565
H       2.23689896      1.18923174      1.20481403
H       0.09861973      1.02906990      0.14269310
H      -1.69988022     -1.21496389     -0.35388497
H      -1.43667247      0.08572365     -1.51812607
H      -2.47450517      0.45595376      1.33250308
H      -3.46506254      0.47538053     -0.15697313
