15
b3lypvtz=-216929.02418337
C      -1.90804090      0.40064142      0.33813123
C      -0.78771919     -0.33324145      0.33347151
O      -0.78553143     -1.62701866      0.83609205
C       0.51296151      0.09612290     -0.17018910
C       0.61528070      1.48843159     -0.73826674
C       1.61771044     -0.67847354     -0.15478045
O       1.76818732     -1.93816932      0.29602182
H      -1.92261537      1.40513256     -0.04871130
H      -2.83569177      0.00563818      0.73190148
H      -1.66682885     -1.85059369      1.15134360
H       0.35753297      2.24744265      0.00471730
H      -0.05596836      1.62722855     -1.58958843
H       1.62992519      1.68961062     -1.07970411
H       2.55010424     -0.29101870     -0.54653190
H       0.91079349     -2.24163310      0.63589304
