16
b3lypvtz=-202030.73851879
C       3.63883468     -0.15773447      0.12248355
C       2.42675374      0.39387689      0.06934866
N       1.23106668     -0.29286246     -0.04644023
C      -0.00462503      0.29283275     -0.08213003
N      -1.06808629     -0.40428003     -0.15767172
N      -2.24671602      0.42998923     -0.22516167
C      -3.31835908     -0.19742996      0.54693957
H       3.78842752     -1.22874690      0.08122050
H       4.51326110      0.46713662      0.20988864
H       2.30351848      1.46916067      0.11430432
H       1.24630623     -1.30098197     -0.09173198
H      -0.01584417      1.38191702     -0.04590448
H      -2.52620661      0.41538140     -1.20186799
H      -4.24329408      0.34912376      0.35799824
H      -3.46534996     -1.25582029      0.30059210
H      -3.08986420     -0.12300525      1.61017151
