14
b3lypvtz=-203704.07223717
C      -0.06027282      1.39711785     -0.33179512
C       0.09385263     -0.06052683      0.17161575
C      -1.18262065     -0.87899253     -0.06215523
C       0.44641665     -0.04160623      1.59570401
N       0.74281083     -0.03156256      2.70797768
C       1.29368623     -0.66454360     -0.58852936
O       1.18933092     -1.49999617     -1.44053139
H      -0.32603877      1.38944648     -1.38842638
H       0.86203209      1.96337456     -0.20355582
H      -0.84861433      1.90064439      0.22564740
H      -1.38842520     -0.93213111     -1.12937779
H      -1.06972923     -1.89492926      0.31122991
H      -2.02731613     -0.41235754      0.44240260
H       2.27488778     -0.23383745     -0.31030628
