12
b3lypvtz=-226207.579421
C       1.66955067      1.74401361      0.07992019
C       0.91792713      0.84773380     -0.18830942
C      -0.01811994     -0.22965677     -0.52679037
O       0.62686092     -1.47152901     -0.74887224
C      -1.07275419     -0.44147694      0.57470834
N      -1.45560159     -1.55144743      1.01423289
O      -1.65564400      0.70019655      1.01357663
H       2.34405577      2.52710413      0.32478550
H      -0.57515366      0.07894561     -1.42294986
H       1.27250346     -1.36402883     -1.45390256
H      -0.93825255     -2.30195521      0.56439298
H      -1.11527201      1.46220048      0.76930793
