12
b3lypvtz=-200525.10650023
N       0.84988091     -0.11946894     -0.41485489
C       0.25539572      0.99956712     -0.35957293
C       0.79658791      2.38032076     -0.37868558
N      -0.07160255      3.30971415     -0.30737725
C      -1.41401058      2.71456613     -0.22333621
C      -1.23085544      1.20452620     -0.25505538
N      -2.07924305      0.26859736     -0.20849852
H       1.86179790      0.00949440     -0.48237632
H       1.85819365      2.60316003     -0.44833623
H      -2.02055161      3.07550640     -1.05754525
H      -1.90097390      3.05308418      0.69444121
H      -3.03101896      0.63473221     -0.13840265
