13
b3lypvtz=-239684.35036686
N      -2.73216889     -0.75517981      0.11704940
C      -2.16654125      0.50244113     -0.02132717
C      -0.84868238      0.75957045     -0.05047762
N       0.07068374     -0.29144072     -0.02439889
C       1.31110197     -0.10665583     -0.00100869
N       2.27833522     -1.07430592     -0.08498421
F       1.89375686      1.12444770      0.05299160
H      -3.61918728     -0.88596210     -0.34149932
H      -2.08402008     -1.50976850     -0.05537693
H      -2.86734949      1.32617389     -0.04603632
H      -0.49982346      1.78353083     -0.08074549
H       3.15816508     -0.85039204      0.35162530
H       1.94245096     -2.00699608      0.08951434
