17
b3lypvtz=-191966.7647944
C       2.78286071      0.86355039     -0.16713689
C       1.63923750      0.19054201      0.52142605
N       0.51504890      0.02103897     -0.03492353
C      -0.52854710     -0.61558696      0.67881649
C      -1.45344932     -1.51233311     -0.13084454
C      -1.95974434     -0.19225184      0.33182799
N      -2.26986329      0.83863007     -0.62243232
H       3.64562993      0.19378004     -0.22455689
H       3.10749045      1.74442302      0.39421377
H       2.49736900      1.16522115     -1.17305861
H       1.82383913     -0.15814284      1.54763047
H      -0.32353931     -0.90717201      1.70850872
H      -1.21023278     -1.60744351     -1.18083186
H      -1.82403346     -2.41582294      0.33321260
H      -2.65156520     -0.20857094      1.16483140
H      -2.22822525      1.74736434     -0.17293377
H      -1.56227555      0.85277420     -1.34821030
