16
b3lypvtz=-202068.56527306
C       2.97718187      0.18764055      0.00000179
N       1.53072033      0.26294007     -0.00000551
C       0.87541496     -0.83924892     -0.00006146
N      -0.49066251     -1.00464583     -0.00004210
C      -1.29896944      0.01935531      0.00005305
C      -2.78021133     -0.24358276      0.00005972
N      -0.91699408      1.30837933      0.00007395
H       3.35571951     -0.84291043     -0.00006986
H       3.37624443      0.70149653     -0.87813285
H       3.37622749      0.70136585      0.87822111
H       1.41206947     -1.79527394     -0.00010775
H      -3.25023836      0.19862211      0.88160858
H      -3.25006190      0.19784773     -0.88197289
H      -2.95567160     -1.31444705      0.00049196
H      -1.59641278      2.04777619      0.00037318
H       0.08655196      1.48742826      0.00014806
