17
b3lypvtz=-194334.39707047
C      -2.47650083     -0.35172707     -0.30885966
C      -1.11912611     -0.58806138      0.31722886
C       0.07210851     -1.02482191     -0.57645677
C       1.06039367     -0.52141254      0.50903661
C      -0.05112593      0.53744008      0.28138528
O       0.08425452      0.33242500     -1.18606171
C       2.48930006     -0.19984701      0.12811738
H      -2.98879781     -1.29912699     -0.49012318
H      -3.11082554      0.23962431      0.35505964
H      -2.38035574      0.17607065     -1.25595283
H      -1.18818276     -1.11677113      1.27042665
H       0.15764093     -1.87445634     -1.25219970
H       0.99396664     -1.05005286      1.46246719
H      -0.11369982      1.56494590      0.63659742
H       2.52813101      0.32564831     -0.82431886
H       2.96086302      0.42582780      0.88902871
H       3.08195620     -1.11342010      0.04462499
