19
b3lypvtz=-171834.70450419
C       2.67179961      0.36278050      0.07441586
C       1.63071433     -0.27595437     -0.44477323
C       0.62154353     -1.07208323      0.33886545
C      -0.81786492     -0.62356516      0.16935884
C      -1.72622828     -1.42920830     -0.37627984
C      -1.18556700      0.75986415      0.66343229
C      -1.04983745      1.86328749     -0.39758094
H       3.37431034      0.90258841     -0.54705629
H       2.86201389      0.36521138      1.14165666
H       1.47642705     -0.25288435     -1.52009255
H       0.69123146     -2.12114721      0.03639991
H       0.88707955     -1.02745615      1.40026277
H      -2.76301564     -1.13039921     -0.47485867
H      -1.46833545     -2.41567934     -0.74114576
H      -2.21715297      0.74287856      1.02136728
H      -0.56048366      1.01532845      1.52369322
H      -1.33905188      2.83074746      0.01752353
H      -1.69415415      1.65594724     -1.25312167
H      -0.02566037      1.94703569     -0.75894888
