11
b3lypvtz=-215417.85883647
O       1.27432537     -0.54923100      0.66148734
C       2.13876421     -0.09957359     -0.05582648
C       2.85919498     -0.83805211     -1.07786460
C       3.84587065     -0.43813201     -1.93898059
C       4.18652010     -1.57262847     -2.72129621
C       3.38321140     -2.58038028     -2.28032106
O       2.57397120     -2.15746304     -1.28789419
H       2.46194407      0.95820593      0.01503094
H       4.26983830      0.55020759     -1.99761907
H       4.92348492     -1.63695633     -3.50277620
H       3.27917480     -3.61219669     -2.56683990
