20
b3lypvtz=-182673.22795005
C       1.44817960      1.83119493     -0.10995282
C       0.78416725      0.67868736      0.05326675
C       1.47382791     -0.56041510      0.57208664
C       1.58859587     -1.68177825     -0.46971158
N      -0.55168625      0.52973421     -0.33581467
C      -1.50715203     -0.20482041      0.49042320
C      -2.87799793     -0.21779314     -0.17217865
H       2.50614307      1.89557433      0.09476383
H       0.95974883      2.72299771     -0.48340446
H       0.94951215     -0.93722854      1.45514259
H       2.46861869     -0.27281682      0.91126381
H       2.16168418     -1.34423540     -1.33421923
H       2.09377204     -2.55114548     -0.04562182
H       0.61002887     -2.00030696     -0.82882910
H      -0.94209850      1.40033969     -0.66961744
H      -1.58983507      0.22259013      1.50042994
H      -1.15515888     -1.23000381      0.61043928
H      -3.59169672     -0.77954734      0.43125307
H      -2.82472888     -0.67348869     -1.16158568
H      -3.26954122      0.79593357     -0.28711066
