14
b3lypvtz=-227013.17410065
C      -2.17371253      0.82523545      0.07323146
C      -1.19986108     -0.08977109     -0.00421034
N      -1.38706189     -1.46216954     -0.12040614
C       0.22001019      0.39336552     -0.02643000
O       0.56534438      1.54599408     -0.08222897
O       1.09536044     -0.63762903      0.04245545
C       2.48475293     -0.27474486      0.03407959
H      -3.21683604      0.54160322      0.10254442
H      -1.92124706      1.87230481      0.09331344
H      -2.28548109     -1.80115825      0.18311937
H      -0.61776807     -2.02754535      0.19729033
H       2.73290697      0.25631302     -0.88318557
H       3.03324670     -1.21006201      0.09409879
H       2.71722016      0.36218803      0.88585518
