13
b3lypvtz=-242041.12118185
C      -0.66416293      0.85211332     -0.84582862
C      -0.30157286      0.14809337      0.43682431
C      -0.99091636      0.45588836      1.53953799
F      -0.75290980     -0.10993729      2.73852865
C       0.76007053     -0.85298185      0.54853373
N       1.57164627     -1.34388879     -0.30904416
O       1.42535902     -0.83255201     -1.60699844
H      -1.48494638      1.54951056     -0.67436860
H      -0.96707497      0.14124485     -1.61305743
H       0.18432297      1.40622447     -1.24427391
H      -1.79588078      1.17633530      1.58614763
H       0.91092522     -1.27735943      1.53361996
H       2.10514008     -1.31259088     -2.08982111
