15
b3lypvtz=-214537.05890967
C       1.03706527     -0.90369049     -0.22710055
C       1.38310516      0.47837954      0.35086763
N       0.25420529      1.28988745     -0.10108039
C      -0.88197491      0.55252501     -0.32662159
N      -2.09373291      0.90694845     -0.50049614
C      -0.48963025     -0.92144465     -0.27298354
O      -0.99199450     -1.48833929      0.93582247
H       1.43501842     -0.99266703     -1.23832300
H       1.42554731     -1.72412666      0.37214209
H       2.32504525      0.87030784     -0.03343177
H       1.44395739      0.44611830      1.44318742
H       0.17929034      2.25784350      0.16752701
H      -2.22169504      1.91523934     -0.42479355
H      -0.88384960     -1.45702752     -1.13959331
H      -1.92035724     -1.22995377      0.99487721
