16
b3lypvtz=-181107.19456155
C      -0.88030668      0.63661335     -0.76499918
C      -0.25630867     -0.77950942     -0.73098645
C      -0.91714338     -0.89634091      0.68662425
C      -0.52286037      0.62079934      0.74079848
C       1.01810912      0.48272440      0.75986993
C       1.21153657     -0.53341587     -0.30788306
N       1.82424452      0.79047623     -0.42190097
H      -1.95610729      0.59567362     -0.92076273
H      -0.46156390      1.40267207     -1.41759903
H      -0.43738799     -1.50689249     -1.51857912
H      -1.99355369     -1.06960000      0.65649613
H      -0.44263600     -1.56348863      1.40724722
H      -0.97437970      1.31411676      1.44618976
H       1.53782576      0.48019471      1.70863069
H       1.89044159     -1.37280710     -0.23822291
H       1.36009014      1.39878397     -1.08492301
