15
b3lypvtz=-214523.6826228
C      -3.29442384     -0.64128965     -0.01478952
N      -2.11033235      0.04834280      0.45917663
C      -1.17163156      0.25622544     -0.35549555
C       0.08093643      0.98872067      0.04525679
N       1.25752632      0.29109637     -0.44999503
C       2.14074655     -0.04847333      0.37710317
O       3.26389500     -0.70048192      0.01893325
H      -3.45701020     -1.53224777      0.59487380
H      -4.16472606      0.00258106      0.12789847
H      -3.23979061     -0.93624471     -1.07114260
H      -1.20933879     -0.07795086     -1.40170879
H       0.07406412      1.12976537      1.13137053
H       0.05652271      1.98046231     -0.42225329
H       2.12039462      0.13347486      1.45292322
H       3.22164267     -0.83090664     -0.94018508
