18
b3lypvtz=-181896.41451326
C      -0.54618876      1.60362996      0.11919982
C      -0.31543284      0.31596745     -0.18035495
N      -1.30272990     -0.65528982     -0.26215890
C      -2.65594461     -0.38632824      0.17150332
C       1.03732165     -0.21507871     -0.52709669
C       2.30282867      0.39701333     -0.01002060
C       1.86153789     -0.94118951      0.51801145
H       0.25445835      2.32401311      0.07123986
H      -1.52654380      1.97084880      0.38280531
H      -0.97355525     -1.58977647     -0.08227935
H      -2.71469470     -0.04661544      1.21409200
H      -3.25053623     -1.29251906      0.06647681
H      -3.10635077      0.38592449     -0.45545325
H       1.08931844     -0.63982917     -1.52367289
H       3.15418279      0.43090877     -0.67537466
H       2.22085442      1.24301428      0.65645301
H       2.40839621     -1.82479498      0.21866191
H       1.47227943     -0.96924481      1.52682880
