15
b3lypvtz=-214518.0890661
C      -2.81032913     -0.54947961     -0.29628595
C      -1.52990079      0.19708603      0.00559563
O      -1.45796841      1.40194797     -0.06614692
C      -0.34066927     -0.66121437      0.42755380
C       0.97503997      0.04593373      0.36833380
N       1.96573695     -0.49966587     -0.21038386
N       3.13803113      0.20834297     -0.30904803
H      -3.63348881      0.15193565     -0.40711695
H      -2.68946837     -1.11371121     -1.22477367
H      -3.03534961     -1.27452976      0.48872615
H      -0.29683264     -1.57249699     -0.17112784
H      -0.55955374     -0.98483279      1.45540251
H       1.03861679      1.03922441      0.81941083
H       3.92044204     -0.42394712     -0.37478437
H       3.27784189      0.91003195      0.41368088
