12
b3lypvtz=-226231.09798663
C      -1.58147045     -0.96260109     -0.40928504
C      -0.70434781     -0.12674823      0.13571459
C      -0.86337107      1.34369641      0.02744784
O      -0.20361911      2.14749864      0.63438428
O       0.31033986     -0.58692413      0.95283790
C       1.59201700     -0.37005319      0.54863509
N       1.88470339      0.00201033     -0.61387885
H      -1.48972989     -2.03305791     -0.29904313
H      -2.41752158     -0.57283579     -0.97213729
H      -1.67880057      1.64996365     -0.65596547
H       2.26339727     -0.59707877      1.37453732
H       2.88840298      0.10613009     -0.72324724
