15
b3lypvtz=-212138.23284272
N      -2.47521652     -0.81926971     -0.50033864
C      -1.57698884     -0.04805480     -0.02484931
N      -1.60941733      1.32302028      0.08037265
C      -0.33836280     -0.67617488      0.59571866
N       0.84662326      0.14182727      0.40735540
C       1.87145369     -0.40580942     -0.09826583
N       3.02348759      0.27939817     -0.38300286
H      -3.27933972     -0.29222205     -0.84296658
H      -0.70925532      1.76561608      0.19159792
H      -2.28047605      1.81867017     -0.48250773
H      -0.53147444     -0.76606613      1.67055416
H      -0.24716118     -1.68724492      0.18812432
H       1.90593530     -1.46296737     -0.38434822
H       3.11403774      1.19358068      0.03109290
H       3.87442962     -0.24855337     -0.46645384
