15
b3lypvtz=-212109.90192577
C      -2.46111119      1.08295639      0.00989310
N      -2.26203463     -0.35313811     -0.07400908
C      -1.00443837     -0.88678584      0.01727237
N       0.04649866     -0.16259193      0.00667563
N       1.25496295     -0.80780751      0.00945840
C       2.43275715     -0.09683471     -0.00542215
N       2.60905213      1.16020301      0.00992149
H      -1.91086023      1.57501708     -0.79113626
H      -2.10939102      1.50038154      0.95868523
H      -3.52135317      1.29776313     -0.10783194
H      -2.99998935     -0.93277315      0.28690336
H      -0.97793234     -1.97914205      0.05867485
H       1.28686324     -1.81651257     -0.05318908
H       3.29440707     -0.76446052     -0.02719706
H       1.71044710      1.64198125      0.03009717
