14
b3lypvtz=-203704.19666603
C       1.74659700     -0.47607353      0.23453932
C       0.52378690      0.20242493     -0.39022000
C      -0.11271709      1.30098953      0.42187714
N      -1.35764752      1.20452293      0.66344619
C      -1.87466873     -0.02004096      0.05142131
C      -0.67640576     -0.73694255     -0.57037432
O      -0.66382799     -1.82686019     -1.07842824
H       2.04213440     -1.33305086     -0.36979839
H       1.52666480     -0.83117102      1.24215589
H       2.58899941      0.21375640      0.29369057
H       0.80097102      0.58245591     -1.38124108
H       0.45232868      2.14981184      0.80079647
H      -2.37421585     -0.64731795      0.79313209
H      -2.62199928      0.21749552     -0.71099694
