19
b3lypvtz=-195142.93028286
C       2.22801432     -1.13014718      0.13577261
C       1.29443746     -0.24893983      0.47401962
C       0.35668211      0.44556581     -0.47443375
C       0.51578887      1.96978062     -0.37009282
C      -1.12266832      0.04001115     -0.24190567
C      -1.41606995     -1.41306498     -0.59203407
O      -1.55502629      0.34901172      1.08730980
H       2.38038759     -1.43047580     -0.89469764
H       2.88031128     -1.57879334      0.87388244
H       1.19486471      0.03108860      1.52009954
H       0.61012033      0.13591253     -1.49346626
H       0.21661528      2.31911338      0.61859556
H       1.55005061      2.26860652     -0.54294389
H      -0.11181484      2.47486682     -1.10715139
H      -1.73487132      0.68456613     -0.87760625
H      -0.82395633     -2.09395805      0.02384011
H      -2.47238902     -1.62976395     -0.43181012
H      -1.17691570     -1.62068927     -1.63672180
H      -1.22433479     -0.33459986      1.67898198
