11
b3lypvtz=-238718.37498355
O      -2.90526158      0.28866051      1.45561396
C      -1.74163141      0.24077171      1.12216262
C      -1.31490058     -0.11114554     -0.23604829
C      -0.04701647     -0.17663497     -0.64727186
O       0.99330307      0.09218523      0.20826672
C       2.26846780      0.00582234     -0.27995812
O       2.56850319     -0.28519851     -1.39568842
H      -0.93554559      0.46515334      1.84273093
H      -2.09674910     -0.33236413     -0.94986502
H       0.25130057     -0.43768915     -1.65253542
H       2.95963010      0.25033917      0.53259290
