16
b3lypvtz=-181104.07216854
C      -1.77791467      0.95062964      0.39565261
C      -1.20576566     -0.18291525     -0.40373214
C      -0.46168570      1.15561918     -0.29169055
C       0.65227755      0.48138006      0.48913493
C      -0.12908081     -0.88642591      0.40869262
C       1.07939449     -1.40815974     -0.39821852
N       1.70723976     -0.05625816     -0.41087293
H      -1.83223426      0.88287077      1.47766847
H      -2.61849266      1.46111894     -0.05531157
H      -1.72394263     -0.59741921     -1.25821576
H      -0.31057876      1.90762270     -1.05336209
H       1.00633456      0.94750833      1.41020819
H      -0.44494660     -1.47928706      1.26682132
H       0.86414888     -1.80445100     -1.39352609
H       1.65550250     -2.15500936      0.15351999
H       2.62364400     -0.04872391      0.01593153
