16
b3lypvtz=-209432.5472949
F      -2.57572289      0.14167326     -0.17592702
C      -1.44484530     -0.67631822     -0.06504537
C      -0.31731367      0.09270171      0.57843048
C       0.36182735      1.26852213     -0.19882082
C       1.71863636      0.58165678     -0.01643891
C       1.70360331     -0.77162914     -0.65370250
C       1.04799141     -0.59948038      0.68904084
H      -1.19276414     -1.01412254     -1.07188236
H      -1.72470204     -1.54371060      0.53874480
H      -0.65063565      0.43986915      1.55701818
H       0.27229184      2.21501275      0.32963365
H       0.04178003      1.41563687     -1.23226178
H       2.64208200      1.07777808      0.24495279
H       1.12004034     -0.94753690     -1.55027759
H       2.64229598     -1.30921443     -0.62941192
H       1.39107406     -1.15205952      1.55238951
