15
b3lypvtz=-216937.85443393
C       1.65554205     -1.39812984      0.00005287
C       0.99643166     -0.05287976     -0.00007038
O       1.87669530      0.98830357     -0.00045522
C      -0.32632412      0.23012335      0.00010437
C      -0.85419380      1.63878429      0.00016428
C      -1.32618709     -0.83329448     -0.00022164
O      -2.52478447     -0.62843366     -0.00024467
H       2.29412964     -1.49791005      0.88296828
H       0.95298239     -2.22363188      0.00023931
H       2.29405970     -1.49814484     -0.88288244
H       2.77965342      0.65466228      0.00021866
H      -1.48150074      1.80745890     -0.87703510
H      -0.05272962      2.37142827      0.00786317
H      -1.49417429      1.80209608      0.86905521
H      -0.95585200     -1.87477223     -0.00061069
