17
b3lypvtz=-194351.10729636
C      -0.10767744      2.40543048     -0.13620440
C      -0.07447781      1.21704117      0.02755880
C      -0.03713164     -0.24087451      0.22045238
C       1.22035716     -0.87800760     -0.38125692
C       2.52004149     -0.40050424      0.26090204
O      -1.15550979     -0.88185578     -0.38022699
C      -2.39993993     -0.57304625      0.22110601
H      -0.13729528      3.45631956     -0.28375089
H      -0.04937598     -0.43665657      1.30369417
H       1.10974515     -1.95728384     -0.26155439
H       1.22276911     -0.67334988     -1.45323968
H       2.65518636      0.67464619      0.13848643
H       3.37576309     -0.89932484     -0.19516580
H       2.54071671     -0.62114227      1.33048986
H      -3.15588213     -1.14921691     -0.30886961
H      -2.63763840      0.49210045      0.13980759
H      -2.41138668     -0.85756316      1.28068741
