14
b3lypvtz=-201300.0202525
N      -2.20507511      0.65122996     -0.28648301
C      -1.32674315     -0.10094389      0.62207314
C       0.11878321     -0.18420659      0.22894274
C       1.19400642      0.64446140      0.48565089
C       2.27451429      0.07559185     -0.21773542
N       1.91577169     -1.02545942     -0.86586622
N       0.60616663     -1.15969727     -0.58241061
H       0.10918724     -1.95340297     -0.94832517
H      -1.86866222      1.60322929     -0.37790970
H      -2.17316055      0.25068469     -1.21731398
H      -1.73891780     -1.10800335      0.72580556
H      -1.39576004      0.35905806      1.60821964
H       1.19474968      1.52943300      1.09845624
H       3.29513970      0.41812523     -0.27310410
