15
b3lypvtz=-214539.81815041
C      -2.23319616     -1.15084308     -0.13273687
C      -1.15474934     -0.09803477     -0.22929685
N      -1.34753580      1.09731031     -0.60902716
C       0.21854760     -0.58830214      0.17295324
C       1.39742266      0.35693499      0.12692052
N       1.47562391      1.56736730     -0.20635822
O       2.51209948     -0.31735698      0.53430231
H      -2.31114117     -1.53009769      0.88897389
H      -3.20140815     -0.75145664     -0.43191288
H      -1.99487305     -2.00593780     -0.76975981
H      -2.32626352      1.26086779     -0.84222461
H       0.15806671     -0.99201661      1.18926957
H       0.46911033     -1.45917828     -0.44211221
H       0.55787417      1.91291924     -0.48145889
H       3.23591932      0.32404137      0.48830899
