14
b3lypvtz=-224528.26725044
O       3.38226286     -0.24729874     -0.91039440
N       2.06752370      0.02792738     -0.47643841
N       1.55443042     -1.04068342     -0.13513002
N       0.29993996     -0.92222774      0.35504335
C      -0.50031467      0.25350342      0.18577730
C      -1.11111777      0.58424469     -1.15194788
C      -1.97176708      0.07666330     -0.02148367
H       3.69443363      0.63248313     -1.14801174
H      -0.15764580     -1.81618727      0.38438946
H      -0.17347438      1.08972278      0.79003492
H      -1.18253687      1.62573185     -1.43192606
H      -0.90877036     -0.09304046     -1.96928857
H      -2.35254062     -0.93378164     -0.09883507
H      -2.64032304      0.76274272      0.47831079
