15
b3lypvtz=-271152.82925478
C       1.34300823     -1.19283928     -0.55840566
C       0.59648452      0.00548561      0.03762853
C       1.29440052      1.32052807     -0.28988127
O       0.55147595     -0.08422286      1.45859944
C      -0.83688516      0.02422951     -0.50874368
F      -1.50909920     -1.09081478     -0.05921193
F      -1.53255040      1.10466257     -0.05915444
H       0.83713002     -2.12813105     -0.31675873
H       2.34898287     -1.22678154     -0.14260472
H       1.42075375     -1.11938794     -1.64489991
H       2.31368192      1.29110044      0.09315537
H       0.77080456      2.15225086      0.17646130
H       1.33556152      1.48698349     -1.36723785
H       0.02142414     -0.85288808      1.69857175
H      -0.88264724      0.01964598     -1.59994118
