12
b3lypvtz=-252146.02398578
C      -1.55534254     -0.52590049     -0.05759610
C      -0.23546640     -0.66010211      0.04874802
O       0.54273613      0.50680881      0.05736490
C       1.85629294      0.38775145      0.18557319
N       2.51476656     -0.66951379      0.30073777
F       2.37547979      1.62718681      0.16969041
N      -2.24779522      0.66232898     -0.23384723
H      -2.15221667     -1.42696848     -0.06878773
H       0.30303579     -1.58776654      0.11550711
H       3.50850546     -0.48727470      0.38095729
H      -3.18116474      0.67631703      0.14319265
H      -1.72883109      1.49713305     -0.00850480
