12
b3lypvtz=-200536.34550239
N      -0.55299459      2.00289255     -0.00773808
C       0.04244484      0.87929204      0.00609422
C       1.47957293      0.62610231      0.01103314
C       1.61570843     -0.71279813     -0.00022659
N       0.39236545     -1.44116357     -0.00076806
C      -0.53475492     -0.54308598      0.00617662
N      -1.85666335     -0.80114610     -0.01899641
H      -1.56899467      1.90117277     -0.02520928
H       2.24313846      1.38357253      0.01332763
H       2.53620511     -1.27742627     -0.00497803
H      -2.52268441     -0.07916801      0.18734022
H      -2.15715228     -1.75602116      0.08167663
