15
b3lypvtz=-170264.3169090228
C       2.61740419      0.33425013     -0.16964959
C       1.32300180      0.22213690     -0.39271166
C       0.27156231     -0.57408434     -1.02025737
C       0.05858453      0.93680437     -0.54784667
C      -0.98440619      0.45075822      0.42770475
C      -0.77969058     -0.99946750     -0.02548513
C      -2.08675402     -0.29899235     -0.26452630
H       3.29191144     -0.49405361     -0.34652785
H       3.04615594      1.25661199      0.20137310
H       0.35458165     -0.94317466     -2.03538259
H      -0.03432755      1.81716504     -1.17233244
H      -1.08590656      0.80166570      1.44531071
H      -0.70806285     -1.87116443      0.61013745
H      -2.90577147     -0.61297722      0.37066002
H      -2.37828263     -0.02547825     -1.27208355
