14
b3lypvtz=-180342.08765285
C      -2.65671127     -0.28160537     -0.27228465
C      -1.50603885     -0.13758753      0.03126802
C      -0.10161930      0.02942908      0.42550764
C       0.62019118     -1.30483406      0.37758919
C       1.70382085     -1.56643281     -0.33614192
N       0.53586188      1.02368011     -0.44202189
C       0.87882537      2.11490871      0.08585384
H      -3.67342570     -0.40801079     -0.54902264
H      -0.09613349      0.37120948      1.47449881
H       0.16859983     -2.07012646      0.99894613
H       2.16172822     -2.54603989     -0.30649404
H       2.15618693     -0.82079948     -0.97458343
H       0.72494111      2.35350644      1.14555568
H       1.35340225      2.87544157     -0.53003973
