11
b3lypvtz=-238713.73874275
O      -2.12199992      1.30067077     -0.57818024
C      -1.09560067      0.75892013     -0.29308350
C      -1.00943129     -0.65584872      0.25542700
O       0.17113331     -1.35848198     -0.13264550
C       1.29687064     -0.59518888     -0.03656227
C       1.26302724      0.72756932     -0.12272571
O       0.08891915      1.42197649     -0.39264331
H      -1.06072782     -0.59357115      1.34977914
H      -1.86088304     -1.22181606     -0.10835380
H       2.20852014     -1.15674773      0.09607371
H       2.12017225      1.37251779     -0.03718552
