18
b3lypvtz=-205193.01161894
C       2.57998091      0.00603994      0.56926381
N       1.68374758      0.43385915     -0.49435960
C       0.60828201     -0.49511803     -0.82076607
C      -0.40611073     -0.76638289      0.28082301
C      -1.85532266     -1.02509787     -0.07909939
C      -1.45242900      0.25399610      0.60130346
O      -1.40796094      1.45381592     -0.13206731
H       3.36264504      0.75355590      0.70491296
H       3.06683242     -0.92819370      0.27834118
H       2.10211964     -0.15891078      1.54681691
H       1.28391927      1.33862210     -0.27894092
H       1.06065482     -1.44403863     -1.12536659
H       0.08749940     -0.10034044     -1.69343638
H      -0.02593823     -1.31888058      1.13127689
H      -2.42161596     -1.75856378      0.47888636
H      -2.11076858     -0.95589675     -1.12903510
H      -1.72996933      0.38122318      1.64336219
H      -2.30909267      1.73616215     -0.31586742
