18
b3lypvtz=-205204.3601968
C       1.78581803      0.11192230      0.56446387
N       0.87829394      0.03189958     -0.57040358
C       0.11326038     -1.21394542     -0.65040485
C      -1.10043746     -1.23241114      0.27806869
O      -1.93648076     -0.10449854      0.03680580
C      -1.22894631      1.11946336      0.21206088
C      -0.01623372      1.18190451     -0.71607663
H       2.47359974     -0.73497120      0.53261957
H       1.30700578      0.11347168      1.55565744
H       2.37909677      1.02449459      0.48409718
H       0.77420425     -2.05564518     -0.43188033
H      -0.24080959     -1.32812252     -1.67980050
H      -0.78791570     -1.24347084      1.33171391
H      -1.71492643     -2.11545594      0.09921190
H      -0.92393806      1.22379962      1.26278129
H      -1.93528921      1.91869045     -0.01529497
H       0.54917517      2.10043985     -0.54386946
H      -0.37547685      1.20243485     -1.74975021
