18
b3lypvtz=-205220.30247659
C      -2.75897222     -0.82081402     -0.02991155
C      -1.23675859     -0.82230759     -0.07207361
C      -0.62614667      0.56366742     -0.01974689
O      -1.29412861      1.56197540      0.13088945
C       0.88415446      0.68510324     -0.22008257
N       1.64787502     -0.43520565      0.30773619
C       3.05041068     -0.42131275     -0.09236199
H      -3.14439018     -1.84031405     -0.06556429
H      -3.12518954     -0.34630353      0.87986695
H      -3.17506095     -0.26669047     -0.87135468
H      -0.85371176     -1.32100237     -0.96817582
H      -0.81355414     -1.40345610      0.75262541
H       1.03879494      0.71304863     -1.30572537
H       1.18737088      1.66935279      0.16241170
H       1.58817269     -0.44028922      1.31910347
H       3.57998816      0.51015494      0.15831138
H       3.57307479     -1.25057103      0.38457592
H       3.12048303     -0.56218863     -1.17278869
