9
b3lypvtz=-235569.43821674
O       1.12722049     -0.02801022     -0.05557092
C       2.30453675      0.11082211     -0.05432707
N       3.02449626      1.28265866     -0.05525992
C       4.31590042      1.21351128     -0.05350073
N       5.09445526      0.07995481     -0.05079390
C       4.41806494     -1.01263281     -0.04994916
O       3.09864386     -1.10640669     -0.05145420
H       4.86353177      2.15026131     -0.05434263
H       4.90725025     -1.98105844     -0.04790147
