11
b3lypvtz=-213018.15947086
O       1.25635526      0.18748534      0.33494421
C       2.39355130      0.04969353     -0.05373725
C       3.02259605     -1.24962206     -0.30766144
N       4.28798276     -1.29359535     -0.73699220
N       4.54901726     -2.59275249     -0.86655797
H       5.45942504     -2.88014137     -1.18344097
C       3.49526821     -3.38946308     -0.53556510
C       2.47880258     -2.54806900     -0.16509447
H       3.05247364      0.91626924     -0.24963025
H       3.55784527     -4.46249795     -0.59089070
H       1.48778264     -2.80490681      0.16172612
