11
b3lypvtz=-215377.83283092
C      -2.22777215     -0.35371254      0.15418541
C      -1.03883682     -0.07864434      0.70157295
O      -0.92298678      0.12020349      2.05196566
C       0.15279308      0.02253706     -0.06588072
C       1.20732449      0.12504438     -0.64861082
C       2.43152578      0.23489076     -1.39501103
O       3.50716250      0.48274310     -0.89898441
H      -2.31153829     -0.50922759     -0.90861202
H      -3.11275787     -0.42252836      0.76956473
H      -0.00398139      0.30565616      2.27154827
H       2.31906745      0.07303788     -2.48173802
