11
b3lypvtz=-213002.77410572
N      -0.20431631      2.92051814      1.04354957
C      -0.14543518      1.83442866      0.65918385
C      -0.11003776      0.48637352      0.19015283
C      -1.39078896     -0.26338088      0.20924419
N      -1.62428478     -1.45793835     -0.14937922
C       1.08865928      0.02436008     -0.22604180
O       1.25955290     -1.22563276     -0.69049475
H      -2.22885357      0.32111007      0.58969258
H      -0.78769392     -1.92664804     -0.48995029
H       1.96565957      0.65977221     -0.19748659
H       2.17773872     -1.37296266     -0.93847038
