15
b3lypvtz=-216927.14374455
C       3.35021769      0.08862397     -0.00007179
C       2.00562208     -0.60131275      0.00001290
O       0.98101554      0.41446832      0.00009592
C      -0.28273032     -0.01272581      0.00017436
C      -1.33508191      0.82134307      0.00018122
C      -2.69603718      0.29332710      0.00015471
O      -3.00141152     -0.88404077     -0.00021069
H       3.46317757      0.71514842     -0.88464474
H       3.46328036      0.71515330      0.88448480
H       4.14767213     -0.65541252     -0.00011754
H       1.88021368     -1.22751342     -0.88706401
H       1.88033313     -1.22752966      0.88709588
H      -0.44337163     -1.08750292      0.00021906
H      -1.18977255      1.89357571      0.00019026
H      -3.48786406      1.06892596     -0.00049534
