16
b3lypvtz=-181116.78443744
C      -1.39242485     -1.25599046      0.42001425
N      -1.40044550      0.19540135      0.29185157
C      -0.25698961      0.92782875     -0.01176728
C      -0.27597759      2.03252104     -0.76799243
C       1.03060333      0.47554849      0.65993147
C       1.70357358     -0.63875592     -0.00571422
C       2.26802114     -1.54315685     -0.55530864
H      -0.67235041     -1.57073964      1.17308042
H      -1.15067643     -1.77941456     -0.51240567
H      -2.37833448     -1.57660373      0.75548780
H      -2.20984692      0.53666813     -0.20496589
H      -1.17772134      2.36305385     -1.26759460
H       0.60734740      2.64097754     -0.88496666
H       0.82457148      0.20543935      1.70017346
H       1.71137593      1.32731827      0.68880733
H       2.76917426     -2.34029561     -1.04453089
