16
b3lypvtz=-181122.4534647
C       1.93166424     -1.84163032      0.03302226
C       1.03849512     -1.03830701     -0.00700684
C      -0.06223984     -0.12224331     -0.03574161
C       0.12079867      1.21362558     -0.00507051
C       1.44406210      1.91037203      0.01209426
N      -1.30812706     -0.75222790     -0.13870619
C      -2.52409196      0.00427962      0.06296605
H       2.72935077     -2.54102038      0.06142529
H      -0.75660290      1.84734917     -0.01352895
H       1.53025187      2.57174440      0.87952170
H       2.27378374      1.20607526      0.04316981
H       1.57238356      2.54119913     -0.87348247
H      -1.31694104     -1.67795606      0.25672584
H      -3.37026255     -0.68027804      0.04192190
H      -2.54023171      0.55464236      1.01388880
H      -2.66132902      0.72814548     -0.74338733
