15
b3lypvtz=-191121.26063771
C       0.96129569     -0.02273453     -0.09228570
C       0.30915731      0.52729057      0.91762346
C       0.48039995      1.60899887      2.00259910
C      -0.97235775      1.80326465      1.83076616
N      -1.05309813      0.34702381      1.43618939
C      -0.82191396      2.86109933      2.98096787
N       0.58070011      3.07028261      2.37155823
H       0.50964814     -0.78107270     -0.71814515
H       1.97440208      0.27896775     -0.31314858
H       0.63702116      1.02154574      2.91579607
H      -1.13783317      2.40959762      0.93751984
H      -1.76006377      0.10251169      0.75158751
H      -1.45485150      3.74586974      2.94518233
H      -0.78702262      2.43447304      3.98537903
H       1.29391647      3.24998183      3.07241042
