18
b3lypvtz=-205234.3646627
C      -0.71559806      1.95879019     -0.37737436
C      -0.46271300      0.95193981      0.74410759
N      -0.00264045     -0.35872137      0.27768510
C      -0.92290085     -1.24399750     -0.18438201
O      -2.11487824     -1.02579601     -0.28763753
C       1.39852132     -0.73229459      0.41842144
C       2.35141653      0.02501591     -0.50541989
H      -1.06248488      2.90426267      0.04397227
H      -1.48467569      1.58495786     -1.05123615
H       0.18803576      2.15620049     -0.95444296
H       0.28621606      1.33157788      1.44105399
H      -1.38819839      0.79562697      1.29929249
H      -0.47347622     -2.21356430     -0.46387109
H       1.70095353     -0.58559983      1.46023005
H       1.47037210     -1.80265373      0.21981616
H       2.08201078     -0.12599722     -1.55139210
H       2.34119816      1.09633076     -0.30275472
H       3.37312653     -0.32993599     -0.35896730
