17
b3lypvtz=-171057.79110513
C       2.95342200     -1.26953991     -0.28726425
C       1.92867848     -0.27243398     -0.00890890
C       1.08408002      0.54906646      0.22698184
C       0.04902794      1.54173215      0.49746560
C      -1.34325486      1.16659238     -0.06307653
C      -1.95552279     -0.02934804      0.60037928
C      -2.35043530     -1.13305335     -0.01992132
H       3.64009404     -1.37468487      0.55536048
H       2.50797897     -2.24837993     -0.47640796
H       3.54342277     -0.99709113     -1.16486406
H      -0.03081230      1.70057932      1.57769856
H       0.35057379      2.50280311      0.07127843
H      -1.26871652      1.00030139     -1.13922407
H      -1.99622990      2.03339517      0.08544952
H      -2.07562006      0.03980689      1.67909314
H      -2.79224069     -1.96034403      0.51985740
H      -2.24444560     -1.24960162     -1.09219714
