17
b3lypvtz=-217675.15366819
C       2.11108821     -0.95041166     -0.25067885
C       1.03823264      0.01991794     -0.67916782
C       0.91636764      1.37719351     -0.01105926
C      -0.13370588      0.34679726      0.22908960
O      -0.15137033     -0.20581748      1.52159806
C      -1.51223808      0.50017943     -0.35483069
O      -2.19221052     -0.75945626     -0.40483765
H       1.87439463     -1.96824921     -0.57001268
H       2.21250392     -0.95986932      0.83377133
H       3.07800346     -0.68466774     -0.68317822
H       0.81429519      0.01079800     -1.74134423
H       0.67497228      2.24289660     -0.61386549
H       1.58071805      1.57426565      0.81987058
H      -0.74803425     -0.96444466      1.48731050
H      -1.46350070      0.96589099     -1.34428952
H      -2.12209841      1.13101092      0.29321329
H      -1.75887586     -1.30679297     -1.06827295
