10
b3lypvtz=-223110.32910982
C      -1.12323011     -0.96726655     -0.40989751
N      -1.68092244      0.17223606      0.00261308
C      -0.80097426      1.09393053      0.38606151
N       0.52043306      0.95694245      0.38339431
C       0.94667232     -0.23083758     -0.05237714
N       0.17592200     -1.23413929     -0.46285162
O       2.26155215     -0.44302298     -0.08391903
H      -1.79430835     -1.75482147     -0.73444104
H      -1.19338875      2.04365494      0.73260180
H       2.68824440      0.36332388      0.23881564
