10
b3lypvtz=-223006.28474462
C      -1.66148158     -0.35141086     -0.09838495
C      -0.33794458     -0.20224295     -0.00045926
C       0.39573374      1.03455001     -0.12066285
N       1.67033597      1.12519792     -0.01725918
O       2.37316174     -0.01978678      0.22113639
N       1.64903894     -1.35369046      0.35522653
N       0.44632078     -1.36954617      0.24714168
H      -2.30289871      0.49784839     -0.28495006
H      -2.11009819     -1.32822124      0.00818979
H      -0.12216810      1.96730215     -0.30997810
