17
b3lypvtz=-191939.91479353
C      -2.08628316      0.41001983      0.74073235
N      -1.15354880      0.34500258     -0.37894108
C      -0.25973336     -0.77470410     -0.33224648
C       1.00527784     -0.73576205      0.48612765
C       1.06622081     -0.75057431     -1.03939660
N       1.70030223      0.56965092     -1.07033756
C       1.64162948      0.65006596      0.42084950
H      -2.74114409      1.27375893      0.62169896
H      -2.71456013     -0.48655222      0.85144354
H      -1.52804189      0.53874481      1.66919074
H      -1.65714924      0.35318343     -1.25725195
H      -0.71131058     -1.76969251     -0.32581664
H       1.25964857     -1.51635030      1.18761330
H       1.37594488     -1.53197784     -1.72139298
H       1.11525236      1.26722840     -1.51976653
H       2.64434798      0.68689091      0.84760937
H       1.04314712      1.47106759      0.81988438
