14
b3lypvtz=-229604.48266208
C       3.24815329      0.25943759      0.17260935
N       2.03371894     -0.43708258     -0.20874724
C       0.79995464      0.11242511     -0.06537360
C      -0.37701072     -0.54635182     -0.07559907
C      -1.66663581      0.11739882      0.00425984
N      -2.04028767      1.31817071     -0.04209852
F      -2.65088289     -0.80684891      0.16804057
H       4.09816883     -0.17364385     -0.35281201
H       3.44644183      0.21749494      1.24906454
H       3.17336994      1.30630438     -0.12087717
H       2.08099591     -1.44337301     -0.22420453
H       0.81402644      1.19264114      0.04115604
H      -0.40035138     -1.62681717     -0.13485731
H      -1.25817435      1.94629366     -0.19914587
