17
b3lypvtz=-191990.53082466
C       2.14874825      0.46559849     -0.06569571
C       0.83858576     -0.28154354     -0.32840638
C       0.93416220     -1.73532118      0.14004686
C      -0.34962793      0.44946358      0.34794899
N      -0.45216055      1.84269938     -0.10849133
C      -1.61825197     -0.22608165      0.04263223
N      -2.61556412     -0.75134811     -0.18625198
H       2.13953426      1.46914863     -0.49067626
H       2.98332289     -0.07035350     -0.51925766
H       2.35283074      0.54176973      1.00642048
H       0.64002484     -0.26368240     -1.40297069
H       1.75174998     -2.24415596     -0.37179187
H       0.01764037     -2.28969779     -0.06241802
H       1.13265177     -1.79065721      1.21373655
H      -0.21458349      0.36223463      1.43752283
H       0.28740060      2.39511503      0.30677136
H      -1.33029860      2.25070787      0.18854360
