18
b3lypvtz=-181893.37305014
C       3.20300367     -0.34237879     -0.11395056
C       1.79209390     -0.01839748      0.04651818
C       0.62746908      0.24942377      0.17400407
C      -0.78985065      0.58231286      0.33973927
N      -1.03781574      1.94151904     -0.17767749
C      -1.71052593     -0.40663007     -0.39855652
C      -1.62672451     -1.83883544      0.12039166
H       3.33615420     -1.39017091     -0.39100166
H       3.65864933      0.26788978     -0.89628940
H       3.75758076     -0.16908660      0.81059087
H      -1.01671222      0.50019638      1.41474259
H      -0.38787019      2.59591588      0.24183810
H      -1.97132646      2.23803670      0.08591361
H      -2.73561928     -0.03726025     -0.29574043
H      -1.46625235     -0.36401816     -1.46108009
H      -0.62018128     -2.24183829      0.00301528
H      -1.88657676     -1.89508275      1.18008205
H      -2.31390157     -2.48871468     -0.42300153
