10
b3lypvtz=-228102.42099672
F      -2.21330047     -0.05179257      0.00003449
C      -0.87606156     -0.04151712     -0.00003629
C      -0.21262369      1.18476601     -0.00001235
N       1.11251064      1.22151140     -0.00000151
C       1.75280639      0.04836574     -0.00000484
C       1.06465682     -1.15542422      0.00000139
N      -0.27220437     -1.19878219      0.00000036
H      -0.76164667      2.11802759     -0.00000144
H       2.83521222      0.07442793      0.00000563
H       1.58659968     -2.10457255      0.00000055
