14
b3lypvtz=-201268.97854482
C       2.51517095     -0.77820872      0.24427322
C       1.83527173      0.29108644     -0.15769549
C       0.36207878      0.48040898     -0.08474916
N      -0.19427474      1.62555711      0.07030717
N      -0.36235847     -0.68923646     -0.18099798
N      -1.70052646     -0.94164115     -0.09886287
C      -2.54440354     -0.02146101      0.16635552
H       3.59452232     -0.80714691      0.18238331
H       2.03310239     -1.64857466      0.67139356
H       2.37060269      1.15445097     -0.53728116
H       0.51512641      2.35094763      0.13087212
H       0.14512318     -1.51040510     -0.45424911
H      -3.57589949     -0.35123549      0.21771143
H      -2.29197276      1.01636839      0.33057945
