15
b3lypvtz=-216905.7640136
C       2.31450273      1.20884311      0.55354125
C       1.44193766      0.46796199     -0.11360514
O       0.53185049     -0.33500168      0.52659493
C      -0.55469161     -0.79460997     -0.21489196
C      -0.70912596     -2.09641809     -0.40359656
C      -1.51185612      0.28173149     -0.64168744
O      -2.05743676      0.99201986      0.46335054
H       3.04820355      1.78655370      0.01313326
H       2.32535929      1.23588589      1.63410144
H       1.42130125      0.41307988     -1.19663283
H       0.03115858     -2.80219687     -0.05487265
H      -1.59199304     -2.47671632     -0.89559611
H      -1.01120525      0.97313303     -1.33268143
H      -2.35051408     -0.16588556     -1.17144062
H      -1.32739073      1.31181955      1.00408332
