18
b3lypvtz=-181899.05758316
C       1.18154797      1.54333481     -0.21555527
C       0.74274362      0.12808079      0.10334797
C      -0.59802306      0.00077721      0.82405423
C      -1.78278800      0.39354779     -0.02015290
N      -2.77497532     -0.32427549     -0.34373099
C       1.11491827     -0.96668463     -0.86167582
C       1.81205608     -0.86727056      0.47304233
H       2.16110944      1.54710835     -0.69535896
H       0.48541380      2.04318569     -0.89217771
H       1.25471928      2.14527325      0.69415314
H      -0.73811422     -1.02692519      1.16878809
H      -0.57770518      0.63937733      1.71586590
H      -1.78162959      1.41940025     -0.39649764
H      -2.68850589     -1.26222752      0.05682228
H       0.41405324     -1.77716674     -1.01086123
H       1.67095247     -0.69636611     -1.74922705
H       2.83850391     -0.52547994      0.48736562
H       1.58348416     -1.61285629      1.22302201
