14
b3lypvtz=-226998.20799342
C       0.55469664      1.78990997     -0.35373909
C       0.82442759      0.52565436     -0.02442081
O       2.07757213      0.17754230      0.38601484
C      -0.15831843     -0.59309092     -0.08380254
O       0.51465020     -1.78126058     -0.23728454
N      -1.41381863     -0.63201561      0.00864034
C      -2.25411567      0.51974118      0.24730161
H      -0.41886980      2.08908888     -0.69662291
H       1.33656774      2.53378601     -0.30611920
H       2.12500130     -0.78585307      0.42762705
H      -0.16030825     -2.47397646     -0.20831290
H      -3.17542746      0.18138668      0.72070164
H      -1.78755061      1.27766265      0.88326244
H      -2.53461977      0.99577262     -0.69731393
