12
b3lypvtz=-249568.106282
N      -0.98526967     -0.95248615     -1.11000811
C      -0.38179556     -0.20508937     -0.05235975
C      -1.07497317     -0.03490452      1.10405360
O      -0.65924595      0.62705527      2.17164977
C       0.94257412      0.38805145     -0.14400989
O       1.48373832      1.03490094      0.75208321
O       1.57110580      0.17850863     -1.32054147
H      -0.42800202     -1.76106699     -1.35851820
H      -1.08107875     -0.39574599     -1.95081463
H      -2.06420307     -0.46522031      1.20257180
H       0.24575126      0.96738933      1.95887453
H       2.43129870      0.61860770     -1.25298085
