14
b3lypvtz=-203672.04046387
C       2.72951378     -0.82254779     -0.26591390
C       1.36693975     -0.32004651     -0.17189517
C       0.24467817      0.11309679     -0.07779368
C      -1.09029833      0.60216917     -0.00195551
C      -2.12041927     -0.22713403     -0.24838815
O      -2.01499454     -1.55753997     -0.51918648
N      -1.25675119      1.95126699      0.42211718
H       3.25308143     -0.72399031      0.68746420
H       3.30097806     -0.27801107     -1.02087141
H       2.73845033     -1.87861486     -0.54252251
H      -3.14967296      0.10373619     -0.22157551
H      -1.07640167     -1.79315272     -0.51622152
H      -2.22513408      2.24096464      0.38205225
H      -0.69996950      2.58980349     -0.13222613
