16
b3lypvtz=-204445.40476974
C       2.35448084      0.01060151      0.09401266
N       0.95533316     -0.01651684     -0.28482001
C       0.24522648      1.18473429     -0.13816068
C      -1.07036899      1.23303905      0.09030084
O      -1.86615637      0.11782027      0.20653219
C      -1.23336449     -1.07072601     -0.26666625
C       0.21204179     -1.16471451      0.20736027
H       2.84787372      0.85742136     -0.38363150
H       2.84335709     -0.90203479     -0.25008867
H       2.50653896      0.09278957      1.18169954
H       0.80932083      2.09906252     -0.24832644
H      -1.62097064      2.15600661      0.17869882
H      -1.82046283     -1.90473447      0.11443920
H      -1.26477079     -1.08321292     -1.36051990
H       0.66567224     -2.08316952     -0.17335734
H       0.22679100     -1.21336812      1.30755127
