10
b3lypvtz=-277091.98711687
C      -0.38496317     -0.48107017      0.01282925
C      -1.54635264      0.16237201      0.05864169
O      -1.76714314      1.47655638     -0.05655160
F      -2.68515647     -0.49027580      0.23698746
O       0.75152134      0.30959695     -0.17987337
C       1.95186325     -0.31211708     -0.23231344
O       2.13489799     -1.48860700     -0.12800736
H      -0.26277627     -1.54356559      0.11155661
H      -0.91846747      1.92041636     -0.18494801
H       2.72657661      0.44669393     -0.38660385
