14
b3lypvtz=-227025.60192578
C       2.69286925     -0.31558652      0.01854116
C       1.24072388     -0.67065289      0.02473304
C       0.24136100      0.21689103     -0.01097127
O       0.45784277      1.55428582     -0.04918184
C      -1.22569882     -0.09911754      0.00014564
N      -1.63102094     -1.39122425     -0.02661338
O      -2.01776148      0.83689004      0.04586124
H       3.19128389     -0.68488089      0.91938689
H       3.20546619     -0.77180761     -0.83311532
H       2.83521150      0.76139925     -0.03349941
H       0.99314908     -1.72253055      0.07679561
H      -0.43330550      1.95193875     -0.02865912
H      -0.99742877     -2.14135214     -0.22866810
H      -2.61897806     -1.56337349     -0.09825714
