20
b3lypvtz=-205971.96427319
C      -2.79457986      0.72326270      0.52472016
C      -2.34841857     -0.67867796      0.11138342
C      -1.07044472     -0.69231792     -0.71085802
O      -0.00319130     -0.19029433      0.07458649
C       1.23337408     -0.14834707     -0.60933724
C       2.28698804      0.42044690      0.32671377
N       3.58595816      0.45170199     -0.35142278
H      -2.98379303      1.34921151     -0.35061129
H      -3.71381291      0.68625494      1.11109267
H      -2.02852015      1.21254647      1.12521850
H      -2.19534518     -1.29910067      0.99813524
H      -3.13139390     -1.16279168     -0.47928173
H      -0.84082852     -1.71538282     -1.04052746
H      -1.19108362     -0.07656674     -1.61457062
H       1.52327299     -1.15994558     -0.93329681
H       1.16472361      0.47462920     -1.50977416
H       2.27541073     -0.15829750      1.25933502
H       2.00761943      1.44379545      0.58246568
H       3.97462228     -0.48173463     -0.41954720
H       4.24944245      1.00160772      0.17923983
