14
b3lypvtz=-180319.42874382
C       1.16666062     -0.00013744     -0.81480335
C       0.87447065      0.76281243      0.45187277
C       0.87430255     -0.76306795      0.45184558
C      -0.62264206     -1.00611803      0.08511862
C      -0.36498753      0.00003646     -1.08600141
C      -0.62242040      1.00620584      0.08515472
N      -1.47757007      0.00012607      0.75354837
H       2.03034518     -0.00022044     -1.46092338
H       1.54123667      1.35111234      1.06416864
H       1.54093905     -1.35153756      1.06411942
H      -0.99629255     -2.02122700     -0.01715465
H      -0.89535976      0.00011199     -2.03088760
H      -0.99584756      2.02140056     -0.01708257
H      -1.43243479      0.00010273      1.77102485
