16
b3lypvtz=-204470.6026323
C       2.73424311     -0.75139968      0.00317297
C       1.21178861     -0.82623992     -0.00811121
C       0.54206569      0.55044416     -0.00185618
O       1.22232539      1.56561722      0.00240826
C      -0.91531484      0.64111911      0.00112036
C      -1.75996679     -0.40978416      0.00969899
N      -3.12181043     -0.34278195     -0.03768356
H       3.10488257     -0.20850822     -0.86535975
H       3.09323975     -0.22586575      0.88724805
H       3.16671100     -1.75309089     -0.00379850
H       0.86490745     -1.37616749     -0.88840992
H       0.85324517     -1.39168872      0.85765702
H      -1.30407495      1.65377058     -0.00223948
H      -1.37587933     -1.42249071      0.01895452
H      -3.66035149     -1.14886336      0.22236505
H      -3.57085692      0.54621380      0.10430940
