20
b3lypvtz=-205976.89612742
C      -1.94214616      0.97339043      0.30541964
C      -1.34720934     -0.43705344      0.39819788
N      -2.19235336     -1.47182673     -0.21738732
C       0.05279567     -0.53595738     -0.21882432
C       1.12584003      0.31651251      0.46033097
C       2.51646584      0.06546167     -0.11304591
O       3.51802409      0.90031488      0.46159902
H      -1.33997002      1.71367061      0.83561425
H      -2.94490928      0.99455361      0.73719254
H      -2.02089359      1.28848822     -0.73905692
H      -1.26281044     -0.70403516      1.45725861
H      -3.12249144     -1.45153861      0.18609160
H      -2.30823598     -1.27889156     -1.20766482
H       0.34612208     -1.58830835     -0.19069342
H      -0.01071599     -0.26219564     -1.27936329
H       1.14020258      0.09579505      1.53460019
H       0.90431127      1.38126406      0.36192491
H       2.52877367      0.29289177     -1.18061926
H       2.78245241     -0.99378837     -0.00455923
H       3.57684796      0.70105243      1.40098487
