15
b3lypvtz=-214507.35638251
C       3.16977883     -0.65811056     -0.00000999
N       2.34376718      0.30532754     -0.00003160
N       1.00449205     -0.11367393     -0.00005037
C       0.21746002      0.89005352     -0.00011151
O      -1.10624059      0.78681616     -0.00009256
C      -1.67473716     -0.54408921     -0.00003287
C      -3.17914164     -0.39600382      0.00001806
H       2.85419451     -1.70077624      0.00004511
H       4.22641865     -0.41788063      0.00006769
H       0.55937192      1.92195865     -0.00001831
H      -1.31214873     -1.07593520     -0.88042034
H      -1.31208728     -1.07588398      0.88036190
H      -3.51881088      0.14327722     -0.88438043
H      -3.64512630     -1.38235661      0.00003949
H      -3.51874357      0.14328608      0.88443671
