14
b3lypvtz=-203688.09693156
C      -0.95592398      1.88469752     -0.03259924
C      -0.15447398      0.81606482      0.00113705
C       1.35839417      0.80317607      0.03807611
O       1.75318977     -0.58628837     -0.03000123
C       0.59592036     -1.31860513     -0.00141521
C      -0.53476596     -0.59039182      0.00751932
N      -1.86776698     -1.01523012     -0.06357300
H      -0.56364715      2.89268326     -0.03208990
H      -2.03057362      1.77759040     -0.08578407
H       1.75784615      1.22179708      0.96433028
H       1.80847564      1.32522084     -0.80692884
H       0.73048704     -2.38901112     -0.00800703
H      -1.97631381     -2.01231609      0.05456666
H      -2.46265167     -0.53094135      0.59662310
