17
b3lypvtz=-191985.64667369
C       3.69748666      0.29734459      0.02864920
C       2.37955465     -0.40854037      0.04355126
C       1.19361853      0.20119747     -0.02699517
N      -0.01339325     -0.48559823     -0.00721897
C      -1.09522672      0.18968450     -0.08559105
N      -2.32248982     -0.39458900     -0.13994501
C      -3.55323289      0.32488493      0.11201100
H       3.57248029      1.37918642     -0.04139331
H       4.31483626     -0.02341872     -0.81629488
H       4.27663853      0.08523117      0.93276616
H       2.38634791     -1.49100123      0.11563918
H       1.15625276      1.29300173     -0.10300948
H      -1.11936090      1.28455799     -0.14653360
H      -2.32013918     -1.39258795      0.00473616
H      -4.37859369     -0.15648682     -0.41202804
H      -3.80784859      0.38494351      1.17625587
H      -3.46485456      1.34075000     -0.27259532
