17
b3lypvtz=-215272.49980599392
C      -2.10567590     -0.06307582      0.04330660
C      -0.91987276     -1.02711698     -0.17965068
N      -0.02877267      0.15037518     -0.31784898
C      -1.04099448      1.01786855      0.33022642
C       1.28979800      0.09844743      0.25369844
N       2.01020424     -0.97362164     -0.38115385
O       1.88053921      1.39052270      0.15621377
H      -2.66572915      0.13167232     -0.86905311
H      -2.79631373     -0.30365718      0.84740045
H      -0.68946595     -1.62586994      0.70899117
H      -0.94626476     -1.68532212     -1.04681498
H      -0.85416171      1.15164221      1.40289345
H      -1.16825899      1.99841747     -0.12747982
H       1.28025615     -0.09965811      1.33652022
H       2.05293950     -0.82347020     -1.38339186
H       2.95451789     -1.02607160     -0.02108289
H       1.74725510      1.68891774     -0.75277436
