14
b3lypvtz=-227004.81054771
N      -1.48030363      1.17959884     -0.31275689
C      -1.19593989     -0.08743301      0.06674793
O      -1.97397255     -1.02285060      0.01572709
C       0.22380869     -0.29071419      0.57497939
C       1.17427982     -1.06585217     -0.36133541
C       2.01512522      0.22219354     -0.35429056
O       1.06084494      0.89279432      0.51327535
H      -2.40993316      1.40463517     -0.62158020
H      -0.78235519      1.89628132     -0.20762293
H       0.15834704     -0.68434748      1.59165877
H       0.73938973     -1.34256404     -1.31812293
H       1.64591263     -1.93739135      0.08379330
H       2.11639470      0.73613558     -1.31193017
H       2.99428765      0.14634107      0.12136826
