18
b3lypvtz=-181882.22890859
C       2.12784681     -0.24545469     -0.02151937
C       1.18933723      0.69963180     -0.81662363
C      -0.00520209      0.14017338     -0.01688842
C       0.99587632     -0.41978511      1.02342355
C      -0.99679926     -0.86121632     -0.65724849
N      -2.07499822     -0.28237601      0.17949669
C      -1.25517000      0.93163451      0.41230688
H       3.07428739      0.16464365      0.32807445
H       2.33064160     -1.16899762     -0.56388017
H       1.15519092      0.59016928     -1.90141587
H       1.37360506      1.74958273     -0.58009922
H       1.11479256      0.26211808      1.86747319
H       0.80410548     -1.42105579      1.40889377
H      -0.81697838     -1.92693925     -0.49492971
H      -1.11652028     -0.68109502     -1.73311658
H      -2.95630095     -0.12886987     -0.29417340
H      -1.27938658      1.30847709      1.43797675
H      -1.46873464      1.76034217     -0.27512242
