15
b3lypvtz=-247843.03401216
C       3.20521913      0.32727279      0.31609578
C       2.13658831     -0.50184884     -0.40935074
C       0.76206251      0.07504799     -0.26503807
C      -0.27744849     -0.55293464      0.26929601
C      -1.63948854      0.03966358      0.41237701
F      -1.72890075      1.26731840     -0.18188304
F      -2.56947764     -0.77360850     -0.19365513
H       4.19771579     -0.09720751      0.15977021
H       3.22060868      1.35594101     -0.04887763
H       3.01491282      0.35784883      1.38988401
H       2.38780692     -0.54378933     -1.47449502
H       2.14845883     -1.53103501     -0.04423432
H       0.62517639      1.09033333     -0.62428720
H      -0.19072719     -1.56567666      0.64849198
H      -1.95657277      0.15753256      1.45230016
