15
b3lypvtz=-214555.07929376
C       2.54701029     -0.73052137      0.01556812
C       1.24377334      0.05064513     -0.00238878
O       1.28338320      1.29120449      0.03242526
C       0.03203473     -0.71269843     -0.05632211
C      -1.21786303     -0.12855514     -0.01601734
N      -1.38819060      1.21460391     -0.06442302
N      -2.36882012     -0.87689746      0.09502133
H       2.61300575     -1.39283836     -0.85032470
H       3.38455242     -0.03737132      0.00677483
H       2.60600873     -1.35715751      0.90845064
H       0.09248910     -1.79071929     -0.10671944
H      -0.50865190      1.72825175      0.01209143
H      -2.21523533      1.60240725      0.35737876
H      -3.19162990     -0.49669598     -0.34593329
H      -2.25985368     -1.86734767     -0.04450067
