17
b3lypvtz=-215279.8110381
C      -2.86498062     -0.68912273      0.14448556
O      -1.74711324     -0.01155413     -0.39145726
C      -0.87026576      0.49214603      0.59909332
C       0.32200905      1.11876002     -0.11005894
N       1.11491217      0.17003916     -0.86614802
C       2.12503860     -0.59082432     -0.32867924
N       2.70182186     -0.51812189      0.80476092
H      -3.46707645     -1.03610271     -0.69325317
H      -3.47486423     -0.02593417      0.77024665
H      -2.55973871     -1.55272300      0.74752918
H      -0.53784846     -0.31663937      1.26270749
H      -1.37903055      1.24843484      1.21373638
H      -0.04114948      1.88758438     -0.79423463
H       0.96085322      1.61796495      0.61938534
H       0.67011279     -0.20757716     -1.68598615
H       2.48091454     -1.34443262     -1.03196562
H       2.30477326      0.20703173      1.40037819
