11
b3lypvtz=-210525.16542914
C       3.62586835     -0.31288863      0.00020238
C       2.47426762      0.03253615      0.00014562
C       1.14701573      0.52398138      0.00008612
N       0.14204620     -0.27753000      0.00003410
N      -1.07156466      0.27002036     -0.00005879
N      -2.13877407     -0.53707092      0.00016001
N      -3.20888324      0.10603712      0.00035842
H       4.63597969     -0.63928364      0.00024674
H       1.01868860      1.60939403      0.00008468
H      -1.23910271      1.27979032      0.00017130
H      -3.95232852     -0.59352816      0.00047143
