18
b3lypvtz=-205193.41257867
C      -2.64062207      0.49225706      0.49784752
C      -1.11288420      0.46628224      0.49468900
C      -0.53630306     -0.82641889     -0.08681630
C       0.99651865     -0.87000279     -0.09720493
C       1.60354365      0.11357028     -1.05279485
N       2.71160425      0.72842272     -0.95740514
O       3.40675925      0.39531462      0.22399164
H      -3.04848535     -0.33375282      1.08499113
H      -3.02234453      1.42137914      0.92366519
H      -3.03965256      0.40393160     -0.51517334
H      -0.74135386      0.59292208      1.51618274
H      -0.73426695      1.32288919     -0.07079417
H      -0.91207625     -0.96681479     -1.10633570
H      -0.90787930     -1.67697449      0.49133922
H       1.33072416     -1.87256080     -0.38789299
H       1.39699252     -0.69624460      0.90184235
H       1.06318839      0.35031996     -1.96590107
H       4.18653728      0.95548030      0.16447546
