19
b3lypvtz=-195138.90809146
C      -1.12733088      1.26980650      0.80066620
C      -0.54846595      0.05755877      0.07008049
C      -1.63179793     -0.65865702     -0.72585887
C       0.32063650     -0.84018355      1.00690746
C       1.58115676     -0.13074218      0.49058339
O       2.66003406     -1.01256914      0.23263797
C       0.76033459      0.40451179     -0.70834519
H      -0.36725946      1.79829528      1.37922794
H      -1.91734004      0.96562034      1.49180839
H      -1.55880154      1.98109267      0.09198788
H      -2.07877130      0.00700611     -1.46908417
H      -1.22864899     -1.52546682     -1.25231447
H      -2.43405973     -1.00789590     -0.07018422
H       0.32543523     -1.88012260      0.67856170
H       0.11868184     -0.80420579      2.07764765
H       1.89984141      0.67603232      1.15769363
H       3.42037050     -0.49835163     -0.05600756
H       0.89876075     -0.24486000     -1.57364353
H       0.90722417      1.44313085     -1.00876468
