15
b3lypvtz=-212096.96891158
C       3.28971025     -0.06273796      0.22296979
N       1.98171317     -0.45744934     -0.25914802
N       0.99545470      0.45040788     -0.09964872
N      -0.15214715     -0.05656537     -0.07797856
C      -1.18964993      0.86278493     -0.00951210
C      -2.46516016      0.43135150      0.05088538
N      -2.86020684     -0.88678780      0.13227330
H       4.03696172     -0.73994407     -0.18887697
H       3.37016864     -0.06956305      1.31633155
H       3.50134576      0.94442655     -0.13102587
H       1.68614838     -1.41526737     -0.08982674
H      -0.95698595      1.92069209      0.00067677
H      -3.26630072      1.15708211      0.09438384
H      -2.13958385     -1.55682052     -0.08961084
H      -3.76202301     -1.11051658     -0.25336580
