17
b3lypvtz=-194385.03102955
C      -2.28475340     -0.00007159     -0.94649214
C      -1.87620769      0.00004319      0.52742185
C      -0.37493691      0.00006073      0.81561147
C       0.53333223     -1.10297810      0.18336616
C       1.53812009     -0.00001322     -0.15603984
O       2.69185176     -0.00004025     -0.47584354
C       0.53334274      1.10300646      0.18321611
H      -3.37168809     -0.00006532     -1.03784558
H      -1.91731035     -0.88187176     -1.47404876
H      -1.91728818      0.88163307     -1.47419255
H      -2.31747827      0.87287173      1.01820672
H      -2.31747961     -0.87270858      1.01834180
H      -0.23438976      0.00013477      1.89747426
H       0.89621337     -1.90515800      0.82546772
H       0.11754072     -1.54488778     -0.72476342
H       0.11756042      1.54479519     -0.72497672
H       0.89622794      1.90527347      0.82520645
