11
b3lypvtz=-210570.07182059588
C      -0.48309225      0.97599905      0.12431365
N      -1.58388146      0.25898934      0.07172938
N      -1.71843480     -1.06913026     -0.07621131
N      -0.57076978     -1.72447591     -0.18130384
C       0.58896447     -1.12096183     -0.14335909
C       0.79052547      0.31238262      0.01446677
N       1.88432905      0.99234747      0.06249613
H      -0.57200624      2.04550035      0.24895428
H      -2.48342921      0.71781547      0.14795491
H       1.45481291     -1.76770328     -0.23999251
H       2.69298183      0.37923697     -0.02904837
