13
b3lypvtz=-239458.38455672
O      -3.28241986      1.22532225     -0.35888648
C      -2.17363851      1.11363558      0.08985263
C      -1.15926558      0.12846584     -0.45509491
O       0.03048925      0.25510274      0.29085095
C       1.04959066     -0.60771254     -0.11907271
C       2.29638316     -0.42839883      0.71338740
O       2.42405612      0.34693469      1.61843296
H      -1.80836302      1.72430221      0.93852129
H      -0.99923638      0.34377801     -1.52064788
H      -1.58140514     -0.88342492     -0.38369484
H       0.75152022     -1.66690936     -0.04264415
H       1.33097825     -0.44555642     -1.17315437
H       3.12111083     -1.10553926      0.40215011
