17
b3lypvtz=-215283.74923736
C       2.33418288     -0.57137058     -0.52270701
N       1.26656050     -0.52983275      0.48051250
C       0.18347918      0.37320042      0.19226247
C       0.43247555      1.85438274      0.15071016
C      -1.02606876     -0.17440081     -0.00212296
N      -1.34270351     -1.51915496      0.21282407
O      -2.09720002      0.58437734     -0.39555729
H       2.81809518      0.39622090     -0.71033707
H       1.92442324     -0.92861708     -1.46835118
H       3.10188693     -1.27689901     -0.20075855
H       1.66835350     -0.31381217      1.38654264
H       0.93642587      2.18994877      1.06461889
H       1.07308386      2.14558232     -0.68758656
H      -0.50094597      2.40551105      0.05598058
H      -0.50610043     -2.01929821      0.48952943
H      -1.76358304     -1.95533790     -0.59954740
H      -2.88769195      0.18446395     -0.01241571
