14
b3lypvtz=-226998.67130877
N       2.33012803     -0.15209602      0.17787005
C       1.09400829     -0.03176591     -0.04409499
C       0.30895735      1.25111696     -0.23800256
C      -1.12422336      1.12565985      0.27489519
O      -1.70520160     -0.06667710     -0.24287212
C      -0.98774075     -1.17839503      0.18861291
O       0.37636087     -1.17823139     -0.23606717
H       2.76969266      0.76334163      0.23392472
H       0.27698676      1.45411819     -1.31180089
H       0.82692877      2.07890117      0.24642138
H      -1.14476932      1.09985657      1.37234086
H      -1.74516085      1.95342611     -0.06146214
H      -1.00437157     -1.24440733      1.28542556
H      -1.43776727     -2.06105268     -0.25576880
