16
b3lypvtz=-204429.49857175
C      -2.13860276     -0.45727304      0.34955492
N      -0.75938930     -0.04006745      0.56319759
C       0.24725018     -0.78341877     -0.19504337
C      -0.11195165      0.60406032     -0.57999749
C       1.06154102      1.47324613     -0.20058576
O       1.89552673      0.66715817      0.63497534
C       1.62891232     -0.71878262      0.40771979
H      -2.80460805      0.37720240      0.57245072
H      -2.34132037     -0.79626535     -0.67750050
H      -2.37601302     -1.27369269      1.03269734
H      -0.05738615     -1.63863531     -0.78681783
H      -0.69329455      0.81930267     -1.46883425
H       1.59637390      1.78980929     -1.10579102
H       0.78332352      2.35861519      0.37367345
H       2.35813247     -1.15289169     -0.28895830
H       1.71150570     -1.22836725      1.36925936
