13
b3lypvtz=-242076.44783798
C      -1.81377765     -1.45416695      0.00004562
N      -0.88352237     -0.33078231      0.00001855
C      -1.35494146      0.95184905     -0.00003841
O      -0.66688033      1.95102518     -0.00005560
C       0.48656335     -0.64390595      0.00002413
C       1.51825352      0.19608094     -0.00002950
F       2.76360041     -0.33179061     -0.00000498
H      -2.83309112     -1.07569542      0.00005278
H      -1.67485801     -2.07381345      0.88762768
H      -1.67488097     -2.07384355     -0.88751931
H      -2.45619862      0.98772213      0.00002925
H       0.69715937     -1.70439693      0.00008203
H       1.49647888      1.27063986     -0.00009224
