12
b3lypvtz=-223804.63945214
N      -0.88433788      2.01717228      0.00000473
C      -1.42415522      0.87257773     -0.00000264
C      -0.77437017     -0.46543269     -0.00000300
O      -1.71673444     -1.43795735     -0.00000855
C       0.54594927     -0.76320135      0.00000353
N       1.50890841      0.23150556      0.00001543
N       2.68590172     -0.19813814      0.00003583
H       0.13440558      1.93083035      0.00000836
H      -2.51286295      0.80214391     -0.00000422
H      -1.30105634     -2.30890602     -0.00001056
H       0.88969420     -1.79730991      0.00001377
H       3.29922281      0.62563264      0.00004331
