15
b3lypvtz=-214544.00653142
C      -2.05680588     -0.35255220      0.30331275
C      -1.18249153     -0.41094040     -0.94696728
N      -0.22297242      0.68802096     -1.02753588
C       0.99389296      0.66191774     -0.47410316
N       1.45495901     -0.37209705      0.15374462
C       2.71351024     -0.21526077      0.72686358
O       3.30187301      0.82599003      0.93300772
H      -1.44161685     -0.41794975      1.19990684
H      -2.63153676      0.57423796      0.34311394
H      -2.75945811     -1.18736224      0.30816731
H      -0.61049566     -1.33685776     -0.96161643
H      -1.79536736     -0.37581638     -1.84855356
H      -0.49742801      1.53002289     -1.50315213
H       1.58312749      1.57118045     -0.60350885
H       3.15070988     -1.18243348      1.01992055
