16
b3lypvtz=-181106.89604902
C      -2.60368162     -0.37309431     -0.29390669
C      -1.28941483     -0.36196791     -0.48458563
C      -0.30180958      0.27159526      0.43736127
C       0.71307329      1.33105660     -0.09385815
N       1.89318632      0.59426397      0.48219534
C       0.93533092     -0.51891341      0.87445947
C       1.91052995     -0.70182339     -0.21310785
H      -3.05399622      0.09126065      0.57600663
H      -3.27706941     -0.84526741     -0.99706819
H      -0.88396560     -0.83934395     -1.37239856
H      -0.82098477      0.66792994      1.30998864
H       0.60583908      2.30745989      0.37273280
H       0.76704288      1.45417378     -1.17757199
H       1.02624783     -1.04076078      1.81891282
H       2.79183202     -1.28931561      0.00890696
H       1.58783975     -0.74725333     -1.24806684
