18
b3lypvtz=-181920.85973467
C       2.49338878      0.05517491      0.04695959
C       0.99390491      0.05701176      0.01820293
C       0.28712952      1.18822880     -0.09556742
N      -1.10711135      1.25151878     -0.16979337
C      -1.82591653      0.07710028      0.30866778
C      -1.19104255     -1.17554902     -0.29052596
C       0.29186234     -1.27850240      0.09279889
H       2.89898187      1.06726443      0.00923230
H       2.87629731     -0.42247752      0.95578983
H       2.91313120     -0.50489549     -0.79631919
H       0.78584689      2.14639707     -0.18402782
H      -1.48985942      2.12636611      0.15180775
H      -2.87216724      0.15954462      0.00994375
H      -1.79686093      0.00583448      1.40650451
H      -1.73789227     -2.06081829      0.03894762
H      -1.28480338     -1.12255957     -1.37763908
H       0.79035664     -1.99209268     -0.57248831
H       0.39717521     -1.70018326      1.10036219
