13
b3lypvtz=-239492.52820688
C       1.95645249     -1.07972435     -0.49028371
C       1.18416646     -0.18018007      0.09494112
C       1.56249509      1.19168294      0.54037766
O      -0.12726599     -0.57806561      0.44010236
C      -1.17419274      0.05075543     -0.15976322
O      -1.11099640      0.89443389     -1.00043281
O      -2.32674092     -0.42787057      0.33363394
H       1.57669238     -2.05468546     -0.75826613
H       2.98851222     -0.85150040     -0.70992594
H       0.95723246      1.94277551      0.03287496
H       1.40108540      1.29921124      1.61582055
H       2.61202833      1.38146258      0.32490155
H      -2.13064078     -1.10400413      0.99528967
