14
b3lypvtz=-203637.66941683
C      -0.01639648      0.10360498     -1.08936551
C      -0.31851582     -0.98220370      0.00985686
C      -1.35184494      0.00576116     -0.44747622
O      -1.82965606      1.06233519      0.34380276
C       0.71867970     -0.32848593      0.87781322
C       0.99967706      0.70083286     -0.15663430
N       2.01139075     -0.34319355      0.14462704
H       0.12965153     -0.06168709     -2.14762921
H      -0.43190219     -2.04725780     -0.14124539
H      -2.10904303     -0.43406084     -1.09283528
H      -2.42854863      0.69956427      1.00464025
H       0.69751002     -0.20562091      1.95101325
H       1.22118372      1.74778918     -0.01271633
H       2.70781438      0.08262218      0.75614885
