14
b3lypvtz=-180360.26878604
C       1.37829048     -1.77097593     -0.00099274
N       1.83513848     -0.58812772     -0.00032935
C       0.94983309      0.51958810      0.00016270
C       1.49725876      1.74311339      0.00061999
C      -0.46864597      0.32015506     -0.00001992
C      -1.65371506      0.10440673     -0.00004803
C      -3.09054626     -0.12367351      0.00004956
H       2.08509614     -2.59602887     -0.00129061
H       0.31258086     -2.01194130     -0.00135253
H       2.57296678      1.84240490      0.00074703
H       0.88562734      2.63264836      0.00084885
H      -3.39018879     -0.74612904      0.84566829
H      -3.63505009      0.81980018      0.06961289
H      -3.40910174     -0.62720735     -0.91507713
