17
b3lypvtz=-212853.81002077
N      -2.63275425      0.99427284      0.21190208
N      -2.59834337     -0.20735913     -0.14934094
N      -1.37183321     -0.70952985     -0.26588962
C      -0.17249712     -0.01972651      0.18206715
C       1.05649922     -0.89148623     -0.04038650
C       2.36616379     -0.22262120      0.40602337
N       2.77653569      0.98134571     -0.31259513
H      -3.62333623      1.24119948      0.22670711
H      -1.36899345     -1.71054727     -0.35735047
H      -0.27556095      0.25349072      1.23913075
H      -0.09661465      0.91945632     -0.36864857
H       0.94191634     -1.83067238      0.51282564
H       1.13005210     -1.15535190     -1.10057152
H       3.17424077     -0.95234732      0.31929036
H       2.29886376      0.03082716      1.46749536
H       2.10735415      1.73145322     -0.19427953
H       2.85285439      0.80288734     -1.30724255
