12
b3lypvtz=-223835.73864596
C       1.78264713     -1.19253073     -0.77984212
N       1.33196501     -0.14808950     -1.33995885
C       0.18005707      0.49272783     -0.80679193
N      -0.28165066      1.53922336     -1.35915381
N      -0.39763983     -0.09411820      0.33994078
C      -1.42595441      0.45386747      0.83937628
O      -2.03058790     -0.03776025      1.92126225
H       1.33048202     -1.63922831      0.10531439
H       2.66467288     -1.66379350     -1.20631717
H       0.29826319      1.76960834     -2.16340957
H      -1.91096599      1.34875116      0.45863126
H      -1.54118851     -0.82865766      2.19684849
