16
b3lypvtz=-202013.62992479
C       3.00920368     -0.21765454     -0.14116652
N       1.92662241     -0.87343532     -0.00177589
N       0.79220098     -0.38890705     -0.56828683
C      -0.43638869     -0.87913070     -0.02677140
C      -1.03552369     -0.28464147      1.22830392
C      -1.64238830      0.01640872     -0.11851311
N      -1.44123509      1.34367013     -0.65296755
H       3.91579994     -0.64034613      0.27020628
H       3.06741815      0.74024729     -0.66490514
H       0.77093178      0.60983232     -0.76113746
H      -0.58807807     -1.93659909     -0.19705448
H      -0.47698641      0.51385157      1.69760283
H      -1.57730678     -0.92887034      1.90692850
H      -2.58322645     -0.47897819     -0.34329341
H      -2.01478868      2.02291570     -0.16789809
H      -1.68625478      1.38163709     -1.63524957
