15
b3lypvtz=-191112.86378911
C      -1.28671568      0.40769290      1.07275922
C      -0.86250749      1.10599810     -0.29518730
C       0.61875819      0.85784150      0.14520566
C      -0.14659966     -0.42066476      0.40485532
N      -0.82330519     -0.22624078     -0.96926517
C       1.17258493     -1.19509116      0.23273618
N       1.72732434      0.03309236     -0.48184552
H      -2.29683765     -0.00586580      1.08241182
H      -1.04478579      0.91106417      2.01023822
H      -1.33777528      1.97550595     -0.75545217
H       0.98491233      1.45466264      0.97599729
H      -1.75074234     -0.65279397     -0.94282877
H       1.13063839     -2.10693264     -0.36255364
H       1.72444524     -1.36761734      1.15617622
H       1.56160566     -0.07425117     -1.47684736
