18
b3lypvtz=-205210.50313177
C       2.46693502     -0.55124330      0.37087140
N       1.27214636     -0.59200430     -0.46944979
C       0.21564244      0.29644965     -0.16376510
C       0.59515703      1.75027721     -0.11907957
C      -1.05317739     -0.10820867      0.01003046
C      -1.56776204     -1.51389642      0.00891896
O      -2.03683085      0.85317800      0.24027003
H       3.17568490     -1.29633155      0.00961794
H       2.94963428      0.42221045      0.29310128
H       2.26854366     -0.74686790      1.43413066
H       0.95142699     -1.53963042     -0.59133863
H       1.13310674      2.00476637      0.79834216
H       1.24872291      1.99260438     -0.96010859
H      -0.29151895      2.37583819     -0.16272894
H      -2.18544197     -1.68614988      0.89484260
H      -2.19480537     -1.71495215     -0.86848634
H      -0.77422373     -2.25941027      0.01454127
H      -2.85639102      0.56474062     -0.17399378
