17
b3lypvtz=-217688.34003932
C      -1.26112609      1.22268039     -0.65266327
C      -0.62114981      0.00365424      0.00813149
C      -1.66384664     -1.01067567      0.46062611
C       0.36344106      0.39944981      1.12816805
O       1.60881030      0.53301281      0.45410584
C       1.59129455     -0.50438045     -0.49718057
O       0.25936497     -0.62044690     -0.96137669
H      -1.77671824      0.92320341     -1.56545586
H      -1.98670189      1.69378817      0.01381667
H      -0.49859842      1.95635574     -0.91456170
H      -2.29546115     -1.30553228     -0.37774251
H      -1.18395761     -1.90492741      0.85889115
H      -2.30551812     -0.58704295      1.23638924
H       0.42312996     -0.38477638      1.89368973
H       0.12581249      1.34919561      1.60286269
H       2.25301731     -0.23930152     -1.32206303
H       1.91186335     -1.45291763     -0.03929634
