13
b3lypvtz=-216128.04948574
C       2.63003045     -1.28294652      0.26024075
C       1.76308852     -0.45561140      0.23357442
C       0.67835809      0.52911751      0.22275578
O       1.13411337      1.65958608     -0.53823952
C      -0.59104853     -0.04666024     -0.33848089
C      -1.74086370     -0.01733891      0.33184022
O      -2.94287139     -0.48955804     -0.08416783
H       3.40340725     -2.00942209      0.28169707
H       0.49452559      0.83445169      1.26138253
H       0.37186784      2.23514754     -0.66471420
H      -0.52884872     -0.48211688     -1.33038363
H      -1.81863369      0.40561237      1.32611984
H      -2.85302508     -0.88026110     -0.96152453
