16
b3lypvtz=-204426.85157991
N      -3.01390277      0.29331069     -0.95489294
C      -2.52723154     -0.30958058      0.29572122
C      -1.06719138     -0.33389514      0.34496597
C       0.13309924     -0.33941776      0.40789179
C       1.59091880     -0.33387252      0.43568025
C       2.19613775      0.40814103     -0.76738240
O       3.61528015      0.44515353     -0.71244747
H      -4.02680562      0.33003288     -0.94128050
H      -2.68443679      1.24916426     -1.02504261
H      -2.89460971      0.19183524      1.20307756
H      -2.90106826     -1.33656313      0.33794619
H       1.95499533      0.13729075      1.35233664
H       1.96314332     -1.36412408      0.44350394
H       1.86663353      1.44671100     -0.75895929
H       1.84072401     -0.04453963     -1.69837606
H       3.95431393     -0.43964654     -0.87854230
