14
b3lypvtz=-255326.3061372
C      -2.40484683     -1.06310002      0.09730740
C      -1.46368348      0.10411878     -0.02792091
O      -1.77426557      1.23087221     -0.31821543
O      -0.18980748     -0.27181331      0.22986297
C       0.80702163      0.75698787      0.11057046
C       2.14607769      0.15672068      0.43802743
F       2.54943801     -0.72292182     -0.56125450
H      -2.32473193     -1.50552154      1.09042209
H      -2.13390067     -1.83443118     -0.62441515
H      -3.42206650     -0.72856388     -0.08153247
H       0.58209080      1.57072415      0.80330311
H       0.79853150      1.16084209     -0.90204942
H       2.10846758     -0.39759539      1.37749414
H       2.89399525      0.94950635      0.51179928
