17
b3lypvtz=-194377.52894671
C      -1.52096035      0.07138036     -0.63690771
C      -0.93307356      1.25861103      0.15127006
C       0.42567630      0.76168196      0.66163003
C       1.53423080      0.59919552     -0.39215691
O       1.33572115     -0.83233130     -0.45791033
C       0.35541976     -0.78970311      0.61442872
C      -1.04365977     -1.16346770      0.14688353
H      -2.60553349      0.12452649     -0.73076750
H      -1.10822334      0.04619745     -1.64703036
H      -1.57618324      1.49314117      1.00356024
H      -0.85000322      2.16745154     -0.44758096
H       0.73648051      1.22770199      1.59385590
H       1.35897498      1.08057242     -1.35882690
H       2.54141409      0.84735548     -0.04598359
H       0.70245770     -1.35259604      1.48320660
H      -1.67824449     -1.33094008      1.02285456
H      -1.03908683     -2.08109717     -0.44225237
