13
b3lypvtz=-213771.06637802
C       2.14615530     -1.06783071     -0.04010991
O       0.83728833     -0.67561944      0.37133108
C       0.42538151      0.57611414      0.06372422
N       1.04787584      1.50834882     -0.51580495
C      -0.99435795      0.79121874      0.55312383
C      -1.94964628     -0.14307613     -0.03654828
N      -2.71285733     -0.86540688     -0.50295799
H       2.90940026     -0.44953209      0.43741699
H       2.24820318     -1.00808317     -1.12543143
H       2.26085052     -2.09886028      0.28006967
H       1.99760869      1.25831033     -0.77896995
H      -1.01996004      0.67108931      1.63901742
H      -1.28461003      1.81150637      0.31202531
