14
b3lypvtz=-224580.90339144014
C      -1.38409416     -0.91966301     -0.71851106
C      -0.66242178      0.27167636     -0.14691323
C       0.75942963      0.15526486      0.26048704
N       1.35199591     -1.06417079      0.05523489
N       1.36112186      1.19086204      0.74036720
N      -1.36892013      1.35023064     -0.05251785
O      -0.81943553      2.47916505      0.44210729
H      -1.44040320     -1.74834263     -0.00527726
H      -0.90353264     -1.29032271     -1.62795456
H      -2.40022206     -0.62267945     -0.96521986
H       0.78405737     -1.87422388     -0.11477815
H       2.25408951     -1.23317080      0.46680103
H       0.13640735      2.27860612      0.67437759
H       2.33192786      1.02676821      0.99179694
