16
b3lypvtz=-256057.34760225
C      -2.87247756     -0.56608188      0.11415221
O      -1.71197573      0.11378646     -0.32052124
C      -0.51036855     -0.42499111      0.20568326
C       0.62414853      0.45110695     -0.29832526
O       0.44365114      1.79945862      0.11120002
C       1.97412172      0.02684494      0.25261689
F       2.29123971     -1.24973796     -0.21072111
H      -2.97447602     -0.52797716      1.20525350
H      -2.85984805     -1.61660551     -0.19870247
H      -3.72843375     -0.07112945     -0.34067407
H      -0.36815350     -1.46109827     -0.12228788
H      -0.53548879     -0.40516504      1.30417207
H       0.65472597      0.38158779     -1.39303091
H      -0.47817612      2.02006104     -0.06600463
H       2.74708192      0.71817458     -0.08336984
H       1.96145811      0.00097599      1.34407145
