13
b3lypvtz=-237066.07769196
N       2.06861133     -1.43308264     -0.70961749
C       2.04005044     -0.51304817      0.13989208
O       0.96623884      0.20667703      0.63358979
C      -0.22778546      0.32274019     -0.04738709
N      -0.41197985      0.38071172     -1.29069689
C      -1.38234965      0.44297168      0.90940280
O      -2.59630103      0.67399511      0.24899113
H       1.15711805     -1.66629351     -1.09923657
H       2.93656238     -0.18387066      0.65469680
H       0.43217311      0.32339254     -1.85214256
H      -1.42653048     -0.48058901      1.50117796
H      -1.15884228      1.25520575      1.61094629
H      -2.39686542      0.67128999     -0.69951625
