17
b3lypvtz=-191995.15402581
C       1.86103571     -1.00249143     -0.00616264
N       0.51914509     -0.48965635     -0.12148757
C      -0.62919905     -1.34327102      0.15195985
C      -1.81843351     -0.43750603     -0.19256191
C      -1.29223498      0.96832064      0.12530507
C       0.21511447      0.85533937     -0.01525005
N       0.98786408      1.86963253     -0.00962310
H       1.90806811     -2.00325018     -0.43584634
H       2.55378677     -0.37011967     -0.56187655
H       2.20626900     -1.05709824      1.03464806
H      -0.59116308     -2.24795508     -0.45834545
H      -0.65477454     -1.65623840      1.20595279
H      -2.71500891     -0.70116803      0.36573554
H      -2.04662530     -0.52499967     -1.25549507
H      -1.68532978      1.75026850     -0.52029774
H      -1.51488316      1.25671842      1.15543707
H       1.97049507      1.60875864     -0.06021596
