12
b3lypvtz=-223835.3471867274
C      -2.04120172      0.20764416     -0.12763870
N      -0.73450702     -0.42217886     -0.17976758
C       0.39799486      0.28215279      0.10801469
O       0.37765274      1.46374677      0.41945545
C       1.63956092     -0.50004925      0.01170255
N       2.75705084      0.11623945      0.27426319
N       3.70096997      0.68170926      0.50797155
H      -2.25333390      0.59004038      0.87161360
H      -2.79505531     -0.53094192     -0.39222366
H      -2.10209447      1.04403086     -0.82509145
H      -0.66803071     -1.39157718     -0.43183294
H       1.72099380     -1.54081646     -0.25606641
