15
b3lypvtz=-191203.94269789
C       3.53105675     -0.72238188      0.03181219
C       2.23940646     -0.04971968      0.02800846
C       1.17058181      0.49854651      0.01956768
C      -0.13269043      1.16641451      0.01378626
N      -1.19382472      0.31128100     -0.50361216
C      -2.10209557     -0.03697280      0.30731037
N      -3.11060126     -0.90245783     -0.03157972
H       3.42801038     -1.76510834     -0.27612049
H       4.23076297     -0.24089009     -0.65462204
H       3.98025489     -0.71295726      1.02724603
H      -0.06756924      2.05336228     -0.62441664
H      -0.35185729      1.52806416      1.03100571
H      -2.13631788      0.28816565      1.35475984
H      -3.21622325     -1.09129818     -1.01606282
H      -3.96296661     -0.85937306      0.49917232
