16
b3lypvtz=-204432.65902949
C       2.33147150      1.07307886     -0.22172033
C       1.48114439     -0.15768665     -0.38638732
C       1.18235390     -1.08302006      0.73390705
N       0.15484814     -0.15516864      0.24268336
C      -0.93601747     -0.70292741     -0.48724144
C      -2.13600544     -0.13680072     -0.35827742
O      -2.38739392      0.93476075      0.43216193
H       2.03566370      1.84850811     -0.93118248
H       2.23003935      1.47775002      0.78544382
H       3.38467604      0.84107256     -0.39525090
H       1.52081575     -0.61713992     -1.37048907
H       1.56161649     -0.87194873      1.72682127
H       1.04978437     -2.13551942      0.50848846
H      -0.78790222     -1.56395399     -1.13263797
H      -3.01129049     -0.49472321     -0.88111224
H      -1.53941312      1.16170445      0.84760527
