15
b3lypvtz=-191202.75794745
C      -1.05666479     -0.47888407      0.68839252
C      -1.62661936      0.88015810      0.14409277
N      -0.45610306      1.61798992     -0.41771944
C       0.36848235      0.69677048     -0.68647765
C       0.08339987     -0.72311388     -0.30778367
C       1.63116431     -0.76009959     -0.05681129
N       1.73750700      0.51333786     -0.85812396
H      -1.80001309     -1.27513415      0.72106283
H      -0.67260354     -0.32860104      1.69957955
H      -2.38828870      0.71479306     -0.62514643
H      -2.08305042      1.48038735      0.93033845
H      -0.19904756     -1.37210020     -1.13610057
H       1.89829109     -0.62380222      0.99298056
H       2.18285372     -1.59296843     -0.48767400
H       2.38069215      1.25126683     -0.60060968
