17
b3lypvtz=-191971.9642124
C      -1.50885194      0.97285307      0.83994338
C      -0.95670210      0.15042170     -0.04649466
C      -1.69082816     -1.04136337     -0.60322520
C       0.44488982      0.35579481     -0.58477957
N       1.01428016      1.67086759     -0.24829903
C       1.41763976     -0.73868456     -0.14247078
N       1.35674224     -1.48175467      0.87973477
H      -2.51230214      0.80335206      1.20911349
H      -0.99396385      1.85370310      1.19515988
H      -1.80282117     -0.95047907     -1.68802440
H      -1.15414435     -1.97507473     -0.42201452
H      -2.68526075     -1.12930273     -0.16814525
H       0.38543234      0.31499053     -1.67793211
H       1.35706436      1.67363572      0.70605663
H       1.80726762      1.87498578     -0.84419432
H       2.31649591     -0.81196543     -0.76219708
H       0.48260727     -1.32600079      1.39011077
