14
b3lypvtz=-201292.13636152
C       0.69719405      1.82521985     -0.30804950
N       0.64025531      0.47580865      0.23183828
C       1.50365197     -0.49757077     -0.23990714
N       1.45849880     -1.76204992     -0.13511926
C      -0.56503677      0.10406951      0.93372204
C      -1.71232526     -0.18001194      0.04942149
N      -2.59963906     -0.37559433     -0.65566325
H       1.68494019      1.99885979     -0.73011558
H       0.53140144      2.55749323      0.48449848
H      -0.04710466      1.98858982     -1.09437307
H       2.36089380     -0.05646144     -0.74771145
H       0.61224116     -2.10950585      0.31189472
H      -0.37482481     -0.77326242      1.55374844
H      -0.85254217      0.91409283      1.60731379
