21
b3lypvtz=-195909.25528786
C      -1.28421969     -1.48736858      0.12346931
C      -0.71401735     -0.17805980     -0.43586373
C      -1.84975153      0.83493143     -0.63115614
C       0.42443163      0.39935203      0.44355338
C       1.08259197      1.63841259     -0.17909541
C       1.49426165     -0.63738209      0.78831516
O       2.04649702     -1.15961420     -0.42224673
H      -2.12896785     -1.82318140     -0.48068606
H      -0.54529639     -2.28779899      0.12262048
H      -1.64650216     -1.35699286      1.14764555
H      -0.28244070     -0.39863874     -1.41612491
H      -1.51907095      1.74077912     -1.13785848
H      -2.28208497      1.12800268      0.33013298
H      -2.65084214      0.40041408     -1.23185587
H      -0.02046330      0.69348449      1.40319381
H       1.87244869      2.02066800      0.47091492
H       1.53550927      1.39206489     -1.14016217
H       0.37021870      2.44702831     -0.33412152
H       2.27521938     -0.15487079      1.38819148
H       1.06607949     -1.44327926      1.39244922
H       2.75639923     -1.76795090     -0.20131531
