14
b3lypvtz=-224579.46374665
C       1.09453604      1.43418097      0.21647210
C       1.30386737     -0.04541088      0.02098573
N       2.59365110     -0.41369246     -0.21855855
N       0.42037732     -0.97746124      0.09864275
C      -0.92617489     -0.74945887      0.24941803
N      -1.56380284      0.19391061     -0.33413157
O      -2.94692898      0.11147058     -0.02542420
H       0.21927428      1.61992609      0.83185625
H       0.91574997      1.91593872     -0.74587066
H       1.97423015      1.88707226      0.67604666
H       3.29209888      0.27496085     -0.42551411
H       2.76825268     -1.36866650     -0.48144531
H      -1.46613583     -1.48314866      0.84620299
H      -3.31921426      0.80739151     -0.57440411
