18
b3lypvtz=-205214.82893736
C       2.41983664     -0.52400127      0.77521734
C       1.97355081     -0.37127775     -0.67390322
C       0.56126045      0.09870610     -0.86490167
N      -0.22106273      0.36387750      0.08885283
C      -1.57698094      0.80161617     -0.19931923
C      -2.55034224      0.00673438      0.66690048
O      -2.26365612      0.16168006      2.04558212
H       2.34929095      0.42338899      1.30867072
H       3.45312081     -0.86939188      0.82176296
H       1.79397494     -1.24233839      1.30461306
H       2.08177033     -1.31938794     -1.21400473
H       2.62842962      0.32796066     -1.20748579
H       0.23667016      0.20500177     -1.91127315
H      -1.65535486      1.85643369      0.07900005
H      -1.83799168      0.70244578     -1.26273197
H      -3.56850017      0.36550750      0.50831043
H      -2.51701882     -1.05120380      0.37381178
H      -1.30699714      0.06424841      2.13260334
