13
b3lypvtz=-237066.86088026
N      -2.95542673     -0.66962762     -0.00001963
C      -2.28244140      0.41276263      0.00001258
N      -0.92635013      0.61818963      0.00000758
C       0.05700664     -0.38215422      0.00000670
C       1.36112658     -0.09978461     -0.00000546
O       1.81359785      1.17852754     -0.00002393
O       2.39029523     -0.99479386      0.00000161
H      -2.36709525     -1.50091848     -0.00005246
H      -2.82797022      1.35566513      0.00004481
H      -0.60207305      1.57011930      0.00006445
H      -0.28075910     -1.40485102      0.00001216
H       2.77730611      1.16158036      0.00002824
H       2.04677646     -1.89418078      0.00000536
