18
b3lypvtz=-205206.27063685
C       1.94730335     -0.90030702     -0.05431465
O       1.25676208      0.27303018     -0.45322889
C      -0.09692365      0.41811855      0.00764075
C      -0.54474430      1.76588514     -0.56411806
C      -0.18401661      0.42025489      1.53352213
C      -0.93572124     -0.67794511     -0.64609933
N      -1.78323309     -1.46332216     -0.13349435
H       1.38194039     -1.81137895     -0.27620008
H       2.19461123     -0.89140316      1.01166928
H       2.87448321     -0.91784293     -0.62429576
H      -1.57784395      1.98074532     -0.29086957
H      -0.46222667      1.76088809     -1.65084037
H       0.09793260      2.55713794     -0.17735320
H      -1.19036461      0.68052773      1.86355519
H       0.50288529      1.16606580      1.93342538
H       0.07144497     -0.54763368      1.96541110
H      -0.75174581     -0.76265758     -1.72091420
H      -1.87566819     -1.30905906      0.87247063
