13
b3lypvtz=-239649.52343418
N      -2.37280622     -0.76787238     -0.13409170
C      -1.29940627     -0.64763542     -1.00602932
C      -0.05307317     -0.25843194     -0.69381727
F       0.85680958     -0.27300985     -1.72847327
C       0.44677970      0.11831659      0.61006177
N       1.53827009      0.69887000      0.96431843
N       2.42452918      1.16031012      0.04320823
H      -3.27607058     -0.73181550     -0.57722816
H      -2.34296569     -0.19095256      0.69168317
H      -1.48784976     -0.95819935     -2.02495253
H      -0.20114528     -0.14479782      1.44023319
H       3.33533433      1.27823868      0.45459647
H       2.43149410      0.71697942     -0.86600902
