14
b3lypvtz=-201275.85485011
C       3.04380110     -0.18986632     -0.00053962
N       1.88308215      0.29969947      0.00115064
C       0.74188759     -0.60148856      0.00083546
C      -0.57135992      0.15818546      0.00018081
N      -0.68669235      1.41817511     -0.00000937
C      -1.81226074     -0.68754726     -0.00018426
N      -2.99626338     -0.24409322     -0.00067468
H       3.25596481     -1.26573900     -0.00250926
H       3.90016340      0.48038351     -0.00031826
H       0.76506763     -1.26076913     -0.87568841
H       0.76445574     -1.26003690      0.87791451
H       0.23950929      1.84981586      0.00036422
H      -1.66384093     -1.76988421      0.00005350
H      -2.96202740      0.78167521     -0.00081627
