17
b3lypvtz=-171053.31825525
C       2.40603777     -1.07399339     -0.26345152
C       1.45411063     -0.34628315     -0.33289898
C       0.29879065      0.55300711     -0.40716351
C       0.50135295      1.77925954      0.51050978
C      -1.00795038     -0.18237980     -0.11607777
C      -1.97759227     -0.20721637     -1.02549485
C      -1.14433520     -0.84925077      1.22394391
H       3.24750101     -1.71845696     -0.21053077
H       0.23783931      0.91868695     -1.43574197
H      -0.35399695      2.45037771      0.42920419
H       0.61308435      1.48008299      1.55188766
H       1.40081290      2.32152493      0.22029798
H      -1.86612353      0.26931697     -1.99142066
H      -2.91802552     -0.70854566     -0.83491911
H      -2.09522614     -1.37387393      1.30370315
H      -0.33746659     -1.56739077      1.38520586
H      -1.09004998     -0.12353243      2.03927361
