18
b3lypvtz=-181892.2045522
C       3.09601406      0.27900436      0.34435705
C       1.76940775      0.33325423     -0.34750106
C       0.60137962      0.00815348      0.20008212
C      -0.71535445      0.06337197     -0.48883455
C      -1.90198666      0.79851409      0.19656753
N      -2.80544643     -0.28075617     -0.26614818
C      -1.64540338     -1.18273288     -0.45566428
H       3.78539534     -0.39258725     -0.17501473
H       2.99753582     -0.06632721      1.37384406
H       3.57369053      1.26274651      0.36018660
H       1.78236576      0.66825902     -1.38206081
H       0.58484068     -0.32770504      1.23565426
H      -0.59599086      0.41594731     -1.51337254
H      -1.77064394      0.84159532      1.28471603
H      -2.15170932      1.79634792     -0.16854264
H      -3.49275602     -0.59197473      0.40870280
H      -1.68568828     -1.80185559     -1.35353377
H      -1.42565022     -1.82325533      0.40721294
