13
b3lypvtz=-216164.87986165
O      -1.84581961      1.97047052     -0.09721434
C      -1.03545695      1.11410366      0.08297372
O      -0.58590754      0.71293120      1.32167516
C       0.37310729     -0.33717972      0.96254095
C       1.15543408      0.31786596     -0.19196579
C      -0.25704193      0.21897607     -0.86571152
C      -0.40527105     -1.14000735     -0.09758272
H       0.81135703     -0.74762532      1.86480720
H       1.57622918      1.30608284     -0.01510229
H       1.88359263     -0.34566151     -0.65373645
H      -0.44235916      0.34880993     -1.92512047
H      -1.40554198     -1.47967085      0.16502473
H       0.17757801     -1.93919542     -0.55058819
