17
b3lypvtz=-191985.99496028
C       3.36672002     -0.30796594      0.58260762
C       2.38472762      0.40574877     -0.34530507
N       1.13496202     -0.32187579     -0.44237701
C       0.06073659      0.28247378     -0.12481595
C      -1.24179459     -0.33720424     -0.17314165
C      -2.35782201      0.32969408      0.17515112
N      -3.64616836     -0.13970322      0.10267399
H       3.52465427     -1.33452924      0.25111539
H       4.33002619      0.20562395      0.59470271
H       2.98257245     -0.33950093      1.60351239
H       2.82270331      0.45677920     -1.34768329
H       2.23255877      1.44256453     -0.00555208
H       0.07953659      1.33298266      0.20982100
H      -1.28689805     -1.36775103     -0.50698818
H      -2.28263334      1.36040519      0.50527496
H      -3.77561934     -1.13239082     -0.00585835
H      -4.33760213      0.30511703      0.68049440
