17
b3lypvtz=-215294.70352592
C      -2.20268818     -0.48596162     -0.76760878
C      -0.85024721     -0.05025595     -1.33675347
N       0.24824676     -0.33375159     -0.43320796
C       0.60715910      0.52649739      0.42521551
N       0.07027167      1.77395026      0.68752192
O       1.62016458      0.28682451      1.29380103
C       2.24231219     -0.99690398      1.20559658
H      -2.99991711     -0.32732205     -1.49673123
H      -2.17748447     -1.54522013     -0.51028469
H      -2.44857453      0.07349569      0.13609218
H      -0.90255627      1.01129512     -1.62806335
H      -0.66283345     -0.59869057     -2.26247834
H       0.68803927      2.40574964      1.17098402
H      -0.44564770      2.19618970     -0.06595260
H       1.52122146     -1.79017532      1.39902588
H       3.01942021     -0.99350436      1.96580645
H       2.67311370     -1.15231675      0.21723686
