12
b3lypvtz=-249523.71584138
N      -1.37395761     -1.45877605     -0.41277023
C      -0.38016239     -0.52600262     -0.13687732
O       0.87080584     -1.03832041      0.18102611
C       1.73587265      0.08552736      0.00321938
O       0.95085463      1.25041049      0.20553336
C      -0.34153614      0.80284321     -0.11734119
O      -1.33423572      1.71438118     -0.17815758
H      -1.32802537     -2.24386313      0.22628012
H      -2.29337274     -1.03996065     -0.37152134
H       2.12222553      0.07575337     -1.02694665
H       2.53906912      0.04516423      0.73477216
H      -1.16733780      2.33274301     -0.90131681
