15
b3lypvtz=-214541.53674198
C       1.62415042     -1.45548007     -0.05664314
C       1.01247376     -0.08933473      0.00974046
N       1.91003054      0.94872247      0.03818323
C      -0.32178291      0.20173421     -0.02633966
N      -0.72215658      1.56788861      0.00189353
C      -1.37335537     -0.78764366      0.01630788
O      -2.56179801     -0.49642472      0.03045954
H       2.23048019     -1.64146068      0.83456631
H       0.88687234     -2.24622391     -0.13592588
H       2.28851589     -1.52523458     -0.92183382
H       1.53228888      1.82640234      0.36953320
H       2.84954021      0.74238455      0.33450996
H      -0.50027141      2.04206297     -0.86722444
H      -1.72972893      1.59922746      0.12068259
H      -1.06664301     -1.84526025      0.07238027
