15
b3lypvtz=-214515.66264384
C      -0.16790628      2.14497145     -0.30679661
O      -0.96897857      2.56546377      0.50480182
C       0.18753975      0.73639752     -0.46293905
C       0.39393552     -0.11039486      0.84662026
C      -0.79615112     -0.33439161      0.00075843
N      -0.82282273     -1.54698816     -0.77589975
N       1.38513236     -1.11930350      0.95619416
H       0.36950666      2.84768225     -0.97547941
H       0.83580850      0.46763646     -1.28584016
H       0.23583311      0.47617025      1.74253490
H      -1.72881658      0.07935663      0.37477791
H      -1.22863270     -2.30457751     -0.23878377
H      -1.37967065     -1.43205053     -1.61351405
H       2.31384576     -0.74142222      1.08562515
H       1.37137697     -1.72854995      0.14794017
