12
b3lypvtz=-247094.59892576
N      -0.88666908      0.93730714      0.55648511
C      -0.46442795      0.06995572     -0.40680763
C       0.90744553     -0.43005354     -0.36787995
N       1.65921947     -0.11598707      0.60969854
O       2.92583161     -0.68878325      0.49289094
N      -1.16737969     -0.35363623     -1.40398695
O      -2.47598022      0.17686584     -1.32029759
H      -0.32802032      0.99095081      1.39052093
H      -1.87939074      1.06749955      0.64381119
H       1.23378187     -1.06986295     -1.18154935
H       3.38324045     -0.36900678      1.27739942
H      -2.90775094     -0.21524925     -2.08438464
