18
b3lypvtz=-181907.41733967
C       2.41102940     -1.36225977     -0.17449491
C       1.59981985     -0.52272724      0.45402973
C       0.60864313      0.38540539     -0.22474116
C       0.99446296      1.85919916     -0.03587457
N      -0.70944542      0.16800480      0.37017719
C      -1.64919778     -0.22599200     -0.37450708
C      -3.03232486     -0.47414400      0.13741629
H       3.11828606     -1.97845958      0.36503950
H       2.39976628     -1.46413893     -1.25367102
H       1.62267472     -0.44834608      1.53701365
H       0.59913718      0.15487538     -1.30034274
H       1.01063119      2.11412839      1.02443624
H       0.26996959      2.50830053     -0.52959629
H       1.98145875      2.05098705     -0.45744381
H      -1.48904801     -0.40908652     -1.44808715
H      -3.08681380     -0.26630887      1.20391641
H      -3.75477985      0.15362271     -0.39131481
H      -3.32526137     -1.51185441     -0.04443845
