14
b3lypvtz=-229599.16635161
C      -2.29246688     -1.20850538      0.02054564
N      -1.80210656      0.15213571     -0.06992163
C      -0.47872440      0.44379790     -0.00507047
F      -0.29262955      1.77744836      0.01637131
C       0.57845403     -0.39196031      0.00630137
C       1.95584272      0.05715013     -0.01268033
N       3.01070085     -0.66430123      0.00171399
H      -2.01950847     -1.69153903      0.96453440
H      -1.89459030     -1.80615355     -0.80051555
H      -3.37621040     -1.19434305     -0.06591047
H      -2.41311060      0.89368204      0.23013776
H       0.38256479     -1.45519571      0.02237757
H       2.10377414      1.13674072     -0.04120090
H       2.76737764     -1.65750060      0.02848630
