16
b3lypvtz=-204467.31073642
C       2.51915469     -0.31198986      0.51198068
C       1.63498302      0.44345369     -0.48911572
C       0.17627161      0.28496676     -0.21386424
N      -0.63545600      1.20210589      0.11138813
C      -1.95352551      0.57254914      0.27708523
C      -1.70834233     -0.93010870      0.00448808
O      -0.29980686     -0.99292301     -0.32793205
H       3.57209789     -0.17700846      0.26339888
H       2.36230169      0.05836298      1.52589846
H       2.30025550     -1.37918611      0.50131454
H       1.83268730      0.07592827     -1.49956401
H       1.85436327      1.50929531     -0.47272216
H      -2.66388977      1.01541597     -0.42344820
H      -2.33048269      0.75936650      1.28382204
H      -1.88104450     -1.56454143      0.87369583
H      -2.27423930     -1.32129293     -0.84010650
