18
b3lypvtz=-228508.67012811
C      -3.15423376     -0.18309799      0.04176652
O      -1.88330873      0.20339358     -0.42861060
C      -0.82488067     -0.43502419      0.25417523
C       0.49971462      0.11361174     -0.23666022
O       0.69775902      1.40794113      0.30330221
C       1.66740308     -0.79650193      0.16028468
N       2.92773835     -0.12216021     -0.17316873
H      -3.28725693      0.06965732      1.10130635
H      -3.89601705      0.35579322     -0.54501996
H      -3.32127709     -1.26207522     -0.07921384
H      -0.86578268     -1.52128105      0.07908231
H      -0.90129833     -0.26024325      1.33580098
H       0.44968034      0.16662830     -1.33506223
H       1.65349648      1.55939337      0.24386212
H       1.55181429     -1.77900938     -0.31303739
H       1.64573400     -0.94301458      1.24259457
H       3.70583210     -0.51332925      0.34034714
H       3.14053697     -0.21321361     -1.15948414
