15
b3lypvtz=-214495.88414763
C       3.50697475     -0.44623469      0.00010757
C       2.31433222      0.49876230     -0.00015489
N       1.05558755     -0.24584068     -0.00024644
C      -0.02773029      0.41305295      0.00000872
C      -1.31022201     -0.27536104     -0.00008754
N      -2.37712275      0.42374280      0.00016805
O      -3.51517313     -0.37545690      0.00002922
H       4.44428832      0.11263717      0.00014686
H       3.48827601     -1.08818570     -0.88113600
H       3.48807763     -1.08796723      0.88150662
H       2.35326104      1.15230683      0.87860531
H       2.35346994      1.15203351     -0.87910692
H      -0.07582917      1.50896357      0.00032357
H      -1.32386358     -1.36270250     -0.00038007
H      -4.23325555      0.26649161      0.00024892
