15
b3lypvtz=-214538.11783819
C       0.96364364     -0.81826047     -0.20505942
C       1.64230992      0.56973946     -0.15304075
N       0.55990056      1.56349817     -0.05328536
C      -0.50403883      0.94388076      0.24111256
C      -0.43110609     -0.56648248      0.39496456
N      -1.48574478     -1.36002598     -0.22492872
O      -1.69472517      1.54224239      0.44170714
H       1.51768563     -1.59456100      0.31922298
H       0.84373626     -1.14418779     -1.24064589
H       2.29412608      0.67040328      0.71982800
H       2.25611120      0.77556854     -1.03062480
H      -0.44324294     -0.79673427      1.46541649
H      -2.37914100     -1.16259981      0.21081210
H      -1.57869528     -1.11532242     -1.20510036
H      -1.56081920      2.49284160      0.31962147
