12
b3lypvtz=-223809.40711224
C      -0.16004853     -0.13894032     -0.01392259
C      -1.08298784     -0.17336848     -0.98789364
N      -2.47842180     -0.30619461     -0.80408270
N      -2.86841660     -0.39820863      0.37862970
N       1.18572402     -0.00621685     -0.30309583
C       2.00747350      0.02025030      0.66552700
O       3.32355215      0.14425744      0.47959870
H      -0.47949733     -0.21753021      1.02374517
H      -0.78725542     -0.09678034     -2.02440755
H      -3.89106970     -0.48719884      0.33890231
H       1.75378170     -0.05170421      1.72355957
H       3.47716585      0.20224420     -0.47656015
