15
b3lypvtz=-191222.80487966
C      -1.80555877     -0.15890431     -0.45768071
C      -1.01095452      0.06715532      0.80710500
C      -0.92271664      1.05302067     -0.34543624
N       0.38573272      0.95880517     -0.94758506
C       1.05871895      0.07542646     -0.31377202
C       0.36601459     -0.56230477      0.88501194
N       2.29788857     -0.36164781     -0.71285727
H      -1.49338297     -0.93971353     -1.14069769
H      -2.87622763     -0.01604425     -0.39101290
H      -1.54141881      0.29693708      1.71950233
H      -1.36593483      2.03843010     -0.31839822
H       0.88377578     -0.30405435      1.81415554
H       0.36449341     -1.65210442      0.80694579
H       2.91354004     -0.70895482      0.00365414
H       2.74603009      0.21395344     -1.40893460
