12
b3lypvtz=-226268.78075885
C       2.46254758     -0.44722224     -0.00002813
C       1.04726278      0.00161619     -0.00001158
C       0.50175430      1.22230446      0.00000627
O      -0.87951991      1.13354583      0.00001584
C      -1.22822811     -0.20316724      0.00001397
O      -2.35410272     -0.61882104     -0.00000080
N      -0.03370815     -0.88641329     -0.00001584
H       0.00748880     -1.88953440     -0.00000386
H       3.12840051      0.41392060     -0.00002346
H       2.68967583     -1.05090431     -0.88225437
H       2.68969025     -1.05092460      0.88218060
H       0.92977186      2.20679003      0.00001237
