15
b3lypvtz=-191179.67905889
C      -3.50505435     -0.43725090     -0.31742852
C      -2.42095933     -0.14807431      0.10455454
C      -1.09421448      0.17900671      0.61701947
N      -0.16932030      0.50952185     -0.46934381
C       1.19970932      0.79901867     -0.05356937
C       2.04678600     -0.41404872      0.26367191
N       3.21439147     -0.66621925     -0.15647170
H      -4.46753421     -0.68484049     -0.69009332
H      -1.16837491      1.05384642      1.27104226
H      -0.75798192     -0.65362542      1.25371782
H      -0.19313526     -0.20771286     -1.18360002
H       1.14907024      1.44326825      0.83074739
H       1.69556420      1.38021330     -0.83672496
H       1.58375456     -1.16175584      0.91341107
H       3.55409397      0.09070458     -0.75735177
