14
b3lypvtz=-180398.79806854
C       3.53763058      0.03329238      0.00000061
C       2.12834042     -0.45418522     -0.00000046
C       1.03925557      0.32537409      0.00000040
C      -0.30662803     -0.19299010     -0.00000106
C      -1.41194886      0.57435462      0.00000012
C      -2.72536138      0.03812497     -0.00000018
N      -3.80280259     -0.37711403     -0.00000050
H       3.59079965      1.12171858      0.00000397
H       4.07813563     -0.33813790      0.87538148
H       4.07813494     -0.33813242     -0.87538304
H       1.98989932     -1.53220631     -0.00000250
H       1.15485167      1.40555788      0.00000209
H      -0.42045416     -1.27189405     -0.00000262
H      -1.33724975      1.65546649      0.00000268
