23
b3lypvtz=-173372.55571431
C       1.84407682     -1.33124336     -0.03351761
C       0.99397033     -0.32792211     -0.81588806
C       0.00000791      0.53574521      0.00000057
C       0.76423097      1.43812106      0.98420455
C      -0.76420030      1.43813378     -0.98420326
C      -0.99396703     -0.32790707      0.81588945
C      -1.84410870     -1.33119616      0.03351593
H       2.45408645     -0.84520507      0.72911933
H       2.52465919     -1.85593587     -0.70645178
H       1.23329158     -2.08687416      0.46288967
H       0.43792375     -0.86467766     -1.58924160
H       1.66023321      0.35365289     -1.35392584
H       1.29769608      0.85777971      1.73845254
H       0.07664811      2.10392071      1.51048872
H       1.49389169      2.06078540      0.46121158
H      -0.07660577      2.10391742     -1.51049249
H      -1.49384617      2.06081501     -0.46120959
H      -1.29768024      0.85780101     -1.73844722
H      -1.66020554      0.35367718      1.35394565
H      -0.43792396     -0.86468757      1.58922811
H      -2.45411469     -0.84513228     -0.72910749
H      -2.52469690     -1.85587969      0.70645121
H      -1.23334877     -2.08683635     -0.46290838
