11
b3lypvtz=-233876.05403327
C      -2.08909166     -0.74859992     -0.02526519
O      -1.95628680     -1.94297836     -0.00962359
C      -0.95508850      0.23959853      0.04988139
N      -1.26760672      1.46838615     -0.02751850
N       0.32356085     -0.33826466      0.25743269
N       1.25244391      0.35304099     -0.22101993
N       2.45925997     -0.09705869      0.06993194
H      -3.07170505     -0.25174472     -0.11490900
H      -0.43762066      2.06127657      0.02815743
H       2.53996948     -1.01808651      0.48793463
H       3.20216517      0.27443064     -0.49500186
