18
b3lypvtz=-205217.56015352
N       1.84255742      0.17326693     -0.82376735
C       1.11636566      0.09056959      0.45104228
C       0.16462236      1.28823866      0.60144880
C      -1.05077721      1.15014782     -0.32340649
C      -1.69643649     -0.22167559     -0.15339537
O      -0.75220874     -1.27390497     -0.33273486
C       0.30819292     -1.20461024      0.61356409
H       2.60641106     -0.49325373     -0.83012707
H       1.22766466     -0.09928884     -1.58318877
H       1.86164232      0.13356092      1.24992013
H      -0.17808245      1.33608780      1.63985380
H       0.70943836      2.20889961      0.39247690
H      -1.78598300      1.93055489     -0.11187879
H      -0.74682078      1.27850089     -1.36535927
H      -2.48006428     -0.39077037     -0.89171408
H      -2.14852584     -0.30461365      0.84631552
H       0.93484937     -2.07866756      0.43131811
H      -0.09662336     -1.27767414      1.63436644
