14
b3lypvtz=-180311.9076098
C       0.78791405     -1.37164951      0.25415410
C       1.14768239     -0.01232988     -0.36459371
C      -0.25888497     -0.04612261     -1.04880721
C      -0.73569056      1.20476331     -0.28386972
C       0.51011131      1.04181018      0.56889413
C      -0.78039290      0.29078457      0.89922684
N      -0.66453840     -0.97792975      0.11473504
H       0.99391438     -2.21464325     -0.40660163
H       1.11418427     -1.60018830      1.26983401
H       2.08384111      0.21769554     -0.86716184
H      -0.47789889     -0.35360839     -2.06644454
H      -1.32909009      2.06592707     -0.54943324
H       0.98134843      1.74678209      1.23602812
H      -1.31840013      0.36700894      1.83193965
