13
b3lypvtz=-192845.5812265
C       3.73914188      0.03259166      0.00176527
C       2.29160439     -0.08466150     -0.00340138
C       1.08814472     -0.16949877     -0.00728640
C      -0.31249676     -0.31874930     -0.01356429
C      -1.20289010      0.68952628      0.01329371
C      -2.65116754      0.42998388      0.00360412
O      -3.15922492     -0.67023655     -0.02786719
H       4.08375460      0.62505255     -0.84867285
H       4.21637170     -0.94741853     -0.05182538
H       4.08479120      0.52860391      0.91151586
H      -0.70674084     -1.33090901     -0.04263129
H      -0.87764281      1.72203951      0.04271984
H      -3.28668652      1.33683186      0.02772998
