19
b3lypvtz=-171822.56654451
C       2.96346740     -0.79325930     -0.20367735
C       2.07421565     -0.01661228      0.01236480
C       0.98926553      0.92652767      0.25832296
C      -0.39220812      0.46546032     -0.26468048
C      -1.39483444      1.61479895     -0.12972648
C      -0.85728022     -0.81170715      0.45062340
C      -2.10404294     -1.46145983     -0.15063241
H       3.75284281     -1.47705042     -0.39147996
H       1.24676494      1.88275238     -0.20616441
H       0.91823412      1.11981257      1.33423935
H      -0.27411995      0.23315314     -1.32820485
H      -2.36978562      1.34831923     -0.53696667
H      -1.05001207      2.50413660     -0.66070769
H      -1.53619344      1.88739267      0.91978034
H      -1.03799831     -0.57781784      1.50586515
H      -0.03933044     -1.53509494      0.43354610
H      -2.98037188     -0.81522065     -0.08445173
H      -1.95003148     -1.70552269     -1.20426575
H      -2.34528454     -2.38969743      0.36967268
