15
b3lypvtz=-216823.47715261
C       2.15289861     -0.65409261     -0.47319385
C       1.22427618     -0.02142070      0.53020055
O       0.72677161      1.34111125      0.10187181
C      -0.47912845      0.62678855     -0.41484141
C      -2.00347516      0.28092575     -0.28719909
O      -1.52644366     -1.08843592      0.06787634
C      -0.31302107     -0.37736754      0.60277864
H       3.03587886     -0.02814506     -0.60609000
H       1.68232621     -0.79329076     -1.44548639
H       2.47899972     -1.62948983     -0.10657495
H       1.68830445      0.06538180      1.51213478
H      -0.20537220      0.26810747     -1.40677606
H      -2.60499535      0.26692570     -1.19377183
H      -2.52903732      0.73563757      0.55305753
H      -0.62307244     -0.01959366      1.58704493
