14
b3lypvtz=-229610.6224344
C       3.33205558      0.23841678      0.00088036
C       2.02607770     -0.47983759      0.10652791
C       0.83495944      0.07648485     -0.12159349
N      -0.35386669     -0.64463759     -0.02744005
C      -1.46502508     -0.06003767      0.00869188
N      -1.79876038      1.26691448      0.00037579
F      -2.58328558     -0.81272812      0.02325406
H       3.98903028     -0.24034225     -0.73121163
H       3.87052986      0.22843255      0.95316795
H       3.19769683      1.27912398     -0.29819687
H       2.04664801     -1.52718328      0.38814749
H       0.79324261      1.12330508     -0.43038388
H      -2.74592211      1.49117108      0.25468879
H      -1.10003247      1.91409469      0.32302569
