15
b3lypvtz=-214546.05519925
C      -1.24647053     -0.56052795     -0.02498037
C      -1.03559205      0.95021367     -0.09450740
N       0.34280598      1.24736729     -0.46874097
C       1.41948552      0.42718956     -0.30245933
O       2.55667253      0.78902006     -0.55167841
C       1.11770649     -0.99708411      0.16040291
N      -0.20402637     -1.23931731      0.73463194
H      -1.25068524     -0.97724635     -1.03610644
H      -2.21949445     -0.77488641      0.41878785
H      -1.27431697      1.39993131      0.87754314
H      -1.70939860      1.39508127     -0.83125698
H       0.57976585      2.19008867     -0.73976779
H       1.25568847     -1.64099768     -0.71465435
H       1.89178838     -1.27721920      0.87278268
H      -0.22392897     -0.93161282      1.70000350
