17
b3lypvtz=-217675.3467905
C       2.24254633     -1.01423371      0.03996193
C       1.17114711      0.02832542      0.29040482
O       1.61170584      1.33984012      0.00026968
O       0.04913769     -0.33016978     -0.49272954
C      -1.11718322      0.39373079     -0.19515019
C      -2.01916031     -0.10716184      0.89827514
C      -2.40228673     -0.26267482     -0.55945739
H       1.89501781     -2.00186384      0.34165007
H       3.14237651     -0.76471907      0.60029794
H       2.48442501     -1.05025176     -1.02454927
H       0.88782178      0.06616813      1.34644072
H       1.92322105      1.35125823     -0.91272184
H      -1.02086746      1.46405107     -0.32997567
H      -1.70944235     -1.00282964      1.41849764
H      -2.54911040      0.61399017      1.50503438
H      -2.33217977     -1.25542365     -0.98100050
H      -3.19860287      0.34858019     -0.96018791
