15
b3lypvtz=-214494.69035478
C      -1.55654021      0.90974102      0.80909498
C      -1.73018998      0.62420211     -0.66157313
C      -0.72268945     -0.16029487      0.14194364
C       0.71846545      0.08211874     -0.06795165
N       1.53133849     -0.88745591      0.04116677
N       2.88546739     -0.65594377     -0.07094525
O      -1.04806980     -1.48786556      0.42920141
H      -2.31745350      0.54358048      1.48347768
H      -1.08157730      1.83445526      1.10834605
H      -1.37602075      1.35203617     -1.37936113
H      -2.60735187      0.07011503     -0.96412584
H       1.03914812      1.10192699     -0.29989156
H       3.34623390     -1.49755428     -0.38294582
H       3.12248894      0.12983032     -0.67126814
H      -0.20324944     -1.95889174      0.48483198
