15
b3lypvtz=-193586.80585254
C       2.46259262     -0.10274109      0.50741352
C       1.36618451      0.58346478      0.20231413
C       0.17558200      0.01227486     -0.43365515
C      -0.79306637      0.69103026     -1.42099675
C      -1.93760275     -0.23060926     -0.88242249
C      -0.91860052     -0.85759314      0.06771953
O       0.14363762     -1.39041897     -0.73081279
H       2.53820782     -1.15895739      0.28706893
H       3.30771578      0.37453989      0.98432372
H       1.31129332      1.64693732      0.41305753
H      -0.51850576      0.58285117     -2.46945013
H      -0.96346748      1.74253565     -1.19239503
H      -2.39009340     -0.92255093     -1.59179844
H      -2.71849312      0.32838859     -0.36837111
H      -1.06538426     -1.29915174      1.04425829
