17
b3lypvtz=-194387.18392043
C       2.09504180      0.59236412      0.00010378
C       0.90840732     -0.34825188     -0.00014762
O       1.07449438     -1.55185051     -0.00018180
C      -0.47233399      0.24642925     -0.00009568
C      -0.63059388      1.75303976     -0.00012965
C      -1.51348260     -0.58026998      0.74364809
C      -1.51365182     -0.58030992     -0.74355810
H       2.07386920      1.24342828     -0.87651161
H       3.01168300      0.00892881      0.00015657
H       2.07361504      1.24315988      0.87691525
H      -1.68771155      2.02030913     -0.00002652
H      -0.18026673      2.21140604      0.88263279
H      -0.18045122      2.21133891     -0.88302235
H      -2.28289048     -0.02760141      1.26525227
H      -1.15238073     -1.46879250      1.24066769
H      -1.15269654     -1.46886538     -1.24062432
H      -2.28316520     -0.02764861     -1.26502181
