16
b3lypvtz=-232750.4747591
C       0.41796223      1.69679609      0.18187376
C      -0.01389529      0.26420040     -0.04916667
C       1.10654147     -0.59105546     -0.62138321
F       2.17784233     -0.64432038      0.27367684
C      -0.83205804     -0.41807525      1.07200193
C      -1.94289072     -0.53313458      0.01679416
O      -1.14588737      0.17462113     -0.96684883
H       0.71935634      2.15522519     -0.76199266
H      -0.40187627      2.28104404      0.59946285
H       1.26441759      1.73317374      0.86917079
H       0.76277878     -1.61192089     -0.79478291
H       1.46690978     -0.16624352     -1.56070208
H      -1.06433511      0.23090187      1.91329216
H      -0.42173225     -1.35394976      1.44500530
H      -2.17937609     -1.54760182     -0.31230857
H      -2.87180639     -0.00295380      0.23430611
