15
b3lypvtz=-214496.19372316
N       0.84765231      0.09757226      1.69198176
C       0.59151987      0.25457626      0.34944651
N       1.49751505      0.34587814     -0.55505609
O       2.78821578      0.15186627      0.03176077
C      -0.83642211      0.35164885     -0.04637297
C      -1.52109086     -0.84401492     -0.68557976
C      -1.24267755      0.39127945     -1.48926947
H       0.12516488     -0.34050193      2.23764054
H       1.78857254     -0.18245698      1.91854443
H       3.36755301      0.23837484     -0.72927221
H      -1.43673621      0.92751861      0.64761451
H      -0.90876388     -1.71381438     -0.87812198
H      -2.53983735     -1.05806884     -0.39247254
H      -2.07392192      1.03028352     -1.75154304
H      -0.44674356      0.34965885     -2.21680046
