15
b3lypvtz=-219527.65259888
C       2.87576884     -0.26012233     -0.53445963
C       1.77649147     -0.32825930      0.53547462
C       0.67623311      0.65659887      0.28511189
C      -0.61286942      0.39236423      0.07809617
F      -1.45734814      1.43608137     -0.13974664
C      -1.29136354     -0.90477825      0.04706758
N      -2.53046021     -1.10052966     -0.15269605
H       3.68676407     -0.94964552     -0.29702331
H       3.29855655      0.74382219     -0.60159886
H       2.48211604     -0.52256144     -1.51707232
H       1.39055036     -1.34477401      0.60147505
H       2.22119980     -0.10536594      1.51085840
H       0.96070015      1.70393641      0.25686812
H      -0.65543451     -1.77183325      0.21166025
H      -3.01272657     -0.21035639     -0.29205527
