13
b3lypvtz=-213769.77045173
O      -2.03965607     -1.30209037      0.13334389
C      -1.42915130     -0.28896445     -0.66882777
C      -0.07009393      0.11287830     -0.18823457
C       0.99438820     -0.71162526      0.12193091
N       2.00263524      0.09721608      0.51976555
H       2.92108430     -0.17151908      0.82624250
N       1.67872669      1.40145404      0.49373772
C       0.42138032      1.41307692      0.06748003
H      -2.02894606     -0.99961677      1.04741992
H      -2.06725419      0.59978166     -0.73297525
H      -1.38059690     -0.72014779     -1.67024201
H       1.09299881     -1.78320604      0.09746488
H      -0.09561510      2.35286276     -0.04720581
