13
b3lypvtz=-190414.97331071
C      -2.15947322     -0.61968814      0.49037400
N      -0.99361319     -0.36449172      0.89737587
C      -0.02087541      0.09315575     -0.10578579
C       1.17827524     -0.84222871     -0.05232234
N       1.53389227     -1.47843875     -1.08201595
C       0.40200783      1.46150019      0.19641836
C       0.76840602      2.57709889      0.43790168
H      -2.90027626     -0.97215203      1.20419494
H      -2.48026704     -0.50678089     -0.55124899
H      -0.42183394      0.05081179     -1.12622248
H       1.66112999     -0.90391396      0.92648808
H       2.34767218     -2.06285955     -0.89045611
H       1.08495553      3.56798712      0.64906311
