18
b3lypvtz=-181886.24516375
C      -3.30674257      0.38023663     -0.09472907
C      -1.95165683     -0.01211377      0.40791673
C      -0.95560046     -0.46741210     -0.34402495
C       0.39012449     -0.87485885      0.17415899
N       1.46186035     -0.16460885     -0.52757727
C       2.74062635     -0.08577464      0.16476650
C       1.86817145      1.11236526      0.04272726
H      -4.09046166     -0.22596169      0.36854561
H      -3.53223691      1.42163455      0.15145725
H      -3.38200602      0.26252037     -1.17606376
H      -1.79285129      0.08504949      1.47969027
H      -1.08984275     -0.56169896     -1.41804532
H       0.43512381     -0.71851860      1.26344705
H       0.55001221     -1.94317084     -0.00591147
H       2.81579456     -0.54435591      1.14636536
H       3.62260024     -0.19025556     -0.45498588
H       2.10555849      1.89481085     -0.66704095
H       1.35995854      1.44985362      0.94084765
