17
b3lypvtz=-194382.13871916
C       1.99152173     -0.10385001      0.98861860
C       1.68558179      0.03436883     -0.50100533
C       0.19459247      0.11554690     -0.84455753
C      -0.57927130      1.22489336     -0.18611369
C      -1.62475092      0.73668638      0.46402518
C      -1.66442701     -0.75458650      0.31326166
O      -0.48267397     -1.08158925     -0.42042845
H       3.06586435     -0.19558128      1.15467114
H       1.63938393      0.75971319      1.55505814
H       1.51119830     -0.99237329      1.39850666
H       2.10129118     -0.81769330     -1.04429116
H       2.17046499      0.92681651     -0.90961015
H       0.11011096      0.19530636     -1.93867228
H      -0.30267222      2.26634471     -0.26954684
H      -2.36477040      1.29888399      1.01543586
H      -1.65455598     -1.28167233      1.27426763
H      -2.55413888     -1.09033326     -0.23666542
