13
b3lypvtz=-213761.77554805
N      -2.75263160      0.02420807     -0.07345503
C      -1.55202560     -0.14068519     -0.43296189
C      -0.32418113     -0.01847204      0.42551513
C       0.57757886      1.20275701      0.07383179
N       1.90612449      0.63012894     -0.19041420
C       1.77129883     -0.62100780     -0.11835447
O       0.55565469     -1.15324615      0.18449534
H      -2.81496630      0.21752000      0.92957261
H      -1.35354509     -0.36511396     -1.48387973
H      -0.60159590     -0.03618907      1.48138785
H       0.62787810      1.92251171      0.89000751
H       0.22712271      1.73394483     -0.81377038
H       2.55186793     -1.35195235     -0.28166853
