15
b3lypvtz=-191135.225974
N      -0.31925488      1.36798613      0.89769916
C      -0.38902112      0.49230887     -0.25183588
C       1.02273646      0.37534244     -0.81085774
C       1.56817295     -0.61305778      0.28252499
N       0.68088320     -1.34335561      0.85466839
C      -0.51578762     -1.08322529      0.02223011
C      -1.71405550     -0.22562449     -0.26675278
H      -1.13831530      1.32959855      1.48623603
H       0.49174365      1.19681950      1.48235613
H       1.07598687     -0.09484824     -1.79582424
H       1.57319061      1.31819755     -0.84025555
H       2.61782678     -0.70096064      0.55549778
H      -0.33360986     -1.63134853     -0.89988743
H      -2.41803011      0.15011265      0.46576760
H      -2.20246613     -0.53804512     -1.18156656
