14
b3lypvtz=-203689.26792071
O       2.15819632      1.06981522     -1.45444420
C       1.09334554      0.34381792     -1.04583751
C       0.76237088      0.17876305      0.43105139
C      -0.55247774     -0.57162860      0.35221939
C      -1.68626605      0.09306761     -0.39186626
C      -0.76048953     -0.82831337     -1.13310664
N       0.30800221     -0.20160701     -1.87649292
H       2.66672883      1.35444013     -0.68880035
H       0.69223092      1.14827838      0.93272959
H       1.53958075     -0.39831374      0.94182153
H      -0.78592475     -1.31328820      1.10170008
H      -1.62106746      1.15052830     -0.61747216
H      -2.68386086     -0.26297056     -0.17151499
H      -1.13036906     -1.76258913     -1.52988694
