14
b3lypvtz=-226988.98821008
C      -2.44612715      1.04783154     -0.06555290
C      -1.46972081      0.13428929     -0.04719823
N      -0.14474761      0.52384595     -0.22328228
C       0.78974318     -0.34085045     -0.19123105
C       2.22052201      0.07013120     -0.37259871
O       2.89151179     -0.76003250     -1.31769573
O      -1.67571305     -1.20781637      0.13632932
H      -2.19238308      2.08344001     -0.21792519
H      -3.48462539      0.77948553      0.06994246
H       0.60932955     -1.40764577     -0.04696843
H       2.75958208     -0.06769822      0.56855127
H       2.26560217      1.12926727     -0.63926545
H       2.49492134     -0.61285159     -2.18229446
H      -2.61789504     -1.37139587      0.24511883
