13
b3lypvtz=-218720.28199212
C       2.45133364     -0.52450128      0.87082949
C       1.31905567     -0.36113112      0.50923086
C      -0.02668189     -0.10176971      0.05913246
C      -0.68165426     -0.99383980     -0.93723073
N      -1.06343628     -1.06378383      0.47892324
C      -0.36071589      1.38070244      0.05871317
F      -1.68073414      1.57831985     -0.34227390
H       3.44789325     -0.69111173      1.19617217
H      -0.13719467     -1.85186485     -1.30764588
H      -1.36828146     -0.53094354     -1.63451896
H      -1.93446179     -0.55834307      0.61638376
H      -0.25371313      1.79569999      1.06264095
H       0.28859096      1.92256665     -0.63035665
