13
b3lypvtz=-192842.82241874
C       1.29775125      1.57063183     -0.00185040
C       0.68923625      0.37630011     -0.00000476
C      -0.72223650      0.19225129      0.00005076
C      -1.90547305     -0.03443423     -0.00007409
C      -3.33796984     -0.28408564      0.00010519
C       1.52775457     -0.87206909      0.00215268
O       2.73258001     -0.87961754      0.00196657
H       2.37828134      1.61427534     -0.00183715
H       0.73921564      2.49519386     -0.00335970
H      -3.65900485     -0.72243351      0.94739314
H      -3.61526099     -0.97543748     -0.79819062
H      -3.89676700      0.64175452     -0.14762789
H       0.94681417     -1.81351746      0.00405627
