14
b3lypvtz=-203687.99265831
C      -2.51533389      0.27861688     -0.52381855
C      -1.59388027     -0.36077540      0.52285949
C      -0.13976234     -0.13584737      0.24483668
N       0.63767174     -1.14577432     -0.05239185
O       1.91266112     -0.60504325     -0.25999813
C       1.84656165      0.72079255     -0.07663781
C       0.58694101      1.09324042      0.24258141
H      -2.32361093     -0.13392753     -1.51470449
H      -3.56090751      0.09280783     -0.27560393
H      -2.37154650      1.35884562     -0.57708397
H      -1.76517264     -1.43643278      0.56723393
H      -1.82976022      0.04189128      1.51146720
H       2.76814536      1.26380067     -0.20338436
H       0.22271741      2.08358439      0.44977639
