18
b3lypvtz=-181901.36460292
C       1.57991949     -0.50229870     -0.12123351
C       0.40943975     -1.49209660     -0.01068747
C      -0.93242048     -0.85616391     -0.36661224
C      -1.69448145     -0.07488554      0.67590093
C      -1.04064607      0.65124007     -0.46389932
C       0.20828459      1.49302426     -0.24863915
N       1.30684574      0.81835966      0.44144810
H       2.46949247     -0.91302807      0.36036162
H       1.83272215     -0.35257093     -1.17546006
H       0.59596434     -2.34401421     -0.66896631
H       0.37209931     -1.89554915      1.00602799
H      -1.54017278     -1.42345831     -1.05953847
H      -2.77374772     -0.14374626      0.69095109
H      -1.24307105      0.00397283      1.65819988
H      -1.70715441      1.03791404     -1.22615066
H      -0.03512607      2.40524692      0.30152702
H       0.58371087      1.80820702     -1.22820590
H       1.11655734      0.74771784      1.43422347
