11
b3lypvtz=-212961.14768119
C      -1.19417308     -0.02412606      0.21979858
C      -0.71222932     -1.21672258     -0.17320887
O       0.44778955     -1.35926681     -0.85590632
N       1.60471958     -0.92814828     -0.04029774
C       1.62833285      0.33458372      0.13268004
N       0.77385775      1.35961630     -0.22800526
C      -0.49743496      1.20136241     -0.09550254
H      -2.17958741      0.02424999      0.66325543
H      -1.27338318     -2.13863400     -0.04961155
H       2.50983993      0.65780931      0.68327028
H      -1.10773170      2.08927599     -0.25647206
