14
b3lypvtz=-227015.93746412
C      -2.23971336      0.71479587     -0.00032815
C      -1.19845736     -0.11006847     -0.00014373
O      -1.27240932     -1.48141034     -0.00008148
C       0.21676201      0.41302580     -0.00000699
O       0.45203282      1.61048500      0.00013714
N       1.16900499     -0.55277788     -0.00018531
C       2.58640660     -0.25429049     -0.00010997
H      -3.25985388      0.35358410     -0.00044128
H      -2.06020122      1.77763001     -0.00036372
H      -2.19559405     -1.75480612     -0.00044063
H       0.86016173     -1.50978713     -0.00024432
H       2.70039943      0.82633280     -0.00080548
H       3.07411409     -0.66400270     -0.88696648
H       3.07385753     -0.66278845      0.88745839
