12
b3lypvtz=-223831.04427269
C       1.98821617     -0.08308635     -0.10130463
C       0.55637447      0.28373858     -0.24514327
N      -0.48087329     -0.40764161      0.32828029
C      -1.67374007      0.22165680     -0.02147333
N      -2.88661183     -0.00705919      0.23727790
O      -1.28118362      1.27702536     -0.79891974
N       0.13930319      1.29209089     -0.92442180
H       2.59532217      0.62862276     -0.65483847
H       2.17384884     -1.08560911     -0.49134711
H       2.29045468     -0.06603867      0.94751222
H      -0.41219605     -1.22973715      0.89922107
H      -3.00891464     -0.82396231      0.82515686
