12
b3lypvtz=-200501.28745169635
C      -0.15237310      1.63027936     -0.24700837
C       0.06835386      0.32237027     -0.03183623
C      -1.02685018     -0.56293660      0.45634811
N      -2.25862010     -0.49720927      0.16728266
C       1.38158953     -0.26539068     -0.21250723
N       1.59205415     -1.54694371     -0.11310125
N       1.79107304     -2.65783340     -0.02092294
H      -1.11710717      2.07077747     -0.04199592
H       0.62765003      2.28961008     -0.60228168
H      -0.72412571     -1.35515259      1.14461661
H      -2.43437985      0.25385425     -0.50438203
H       2.25273551      0.31857483     -0.46706850
