16
b3lypvtz=-227763.30509416
C       3.05253438     -0.46331148      0.00007734
C       1.83286864      0.43231885      0.00006647
O       0.66873110     -0.40819933     -0.00000564
C      -0.54800438      0.17692186      0.00003451
N      -0.85037607      1.40581066      0.00010329
C      -1.64857287     -0.85789385     -0.00000140
O      -2.92184415     -0.26859062     -0.00005331
H       3.06462767     -1.09999332      0.88439663
H       3.06467194     -1.09995461     -0.88426912
H       3.95829560      0.14437898      0.00011304
H       1.81379912      1.07238582      0.88675572
H       1.81386089      1.07245176     -0.88657662
H      -0.06246770      2.04388812      0.00012608
H      -1.51483474     -1.49736221     -0.88052729
H      -1.51488978     -1.49734784      0.88054633
H      -2.76634068      0.68958322      0.00002696
