13
b3lypvtz=-211326.31159373
N      -3.17084998      0.28305145      1.08590592
C      -2.43583526     -0.15207402      0.14128385
C      -0.98242440     -0.04319959     -0.03032062
C      -0.11319708      0.11478429      0.97753778
N       1.27306870      0.26899177      0.86705374
N       1.80279581     -0.34252317     -0.08968184
N       3.08957932     -0.03974892     -0.26515503
H      -2.61725755      0.79506836      1.77664621
H      -2.94900559     -0.67751094     -0.66747054
H      -0.59855782     -0.13065454     -1.03999288
H      -0.45580103      0.20119365      2.00222373
H       3.60617632     -0.73714770     -0.77306797
H       3.55130856      0.45976936      0.48873764
