14
b3lypvtz=-226983.27473632
N       2.62217494     -0.10678037     -0.09941593
C       1.31175102     -0.70895297     -0.31063437
C       0.18003735     -0.06863834      0.49012191
O      -0.03743157      1.33087976      0.14168044
C      -1.40620965      1.11475754     -0.27800659
C      -1.25798562     -0.36731198      0.05977095
O      -1.94774688     -1.33837507     -0.00410818
H       2.58015862      0.88650936     -0.29743350
H       2.91401656     -0.20400513      0.86646783
H       1.07421467     -0.64406861     -1.37482822
H       1.35519817     -1.77066459     -0.05763422
H       0.35170334     -0.18247748      1.56645263
H      -1.56989451      1.34423245     -1.33417114
H      -2.12906943      1.65959742      0.33522540
