19
b3lypvtz=-195148.83287543
C      -1.62016303     -0.92548736     -0.27919706
C      -0.41103364     -0.03938599      0.01765221
C       0.73572807     -0.22426299     -1.00253161
C       2.00449071      0.11092974     -0.20066396
O       1.64350246      0.06355773      1.18736030
C       0.32378363     -0.45630584      1.30117154
C      -0.83453362      1.43441195      0.10278050
H      -2.37884327     -0.82901754      0.50103167
H      -2.08725862     -0.64660758     -1.22598939
H      -1.33584518     -1.97772362     -0.34314284
H       0.76246317     -1.26086215     -1.34346153
H       0.61802871      0.40911434     -1.88203766
H       2.81173888     -0.60061914     -0.39539244
H       2.38105461      1.11358003     -0.41465545
H       0.34596703     -1.55168891      1.39090036
H      -0.12092454     -0.04654301      2.20947944
H       0.00775789      2.07484247      0.36691916
H      -1.23800519      1.77940198     -0.85149645
H      -1.60790809      1.57266587      0.86127320
