13
b3lypvtz=-237069.99640078
C      -0.75942409      1.63547181      0.00011910
C      -0.27720170      0.22221804      0.00000051
N      -1.02238644     -0.81391773     -0.00007421
O      -2.37989149     -0.49305217      0.00000043
C       1.21513076     -0.03671500     -0.00005579
N       1.58513743     -1.33875600      0.00019323
O       2.00678826      0.89036228     -0.00018706
H      -1.38292008      1.82099534      0.87641510
H      -1.38350267      1.82095766     -0.87576403
H       0.08922480      2.31241797     -0.00015297
H      -2.80608850     -1.35669903     -0.00009316
H       0.89029021     -2.06414425     -0.00001980
H       2.56454450     -1.56048292     -0.00015135
