16
b3lypvtz=-204463.02592603
C       2.54363289     -0.06835139     -0.59482905
C       1.23409167     -0.12312611      0.15926154
O       0.91306669     -1.08831022      0.81347775
C       0.34787444      1.11381734      0.06458347
C      -1.09042180      0.88034025      0.54203647
C      -1.91422445      0.13586571     -0.47792879
N      -2.35712710     -1.04659042     -0.41234520
H       2.34270276     -0.13239171     -1.66774169
H       3.05916444      0.87875121     -0.42348420
H       3.17854372     -0.90044522     -0.30127208
H       0.37211485      1.49712348     -0.95993601
H       0.82974303      1.88690254      0.67359399
H      -1.56102176      1.85026143      0.72589387
H      -1.07478510      0.32691632      1.48119823
H      -2.14044549      0.69900047     -1.38985705
H      -2.07493181     -1.48761369      0.46637577
