14
b3lypvtz=-250301.94627615
C      -1.56620735      0.77148843     -0.15493965
C      -0.41639409     -0.13557381      0.24583434
N      -0.47924195     -1.18614276      0.94659816
O       0.74175684      0.33486014     -0.25550661
C       1.93821598     -0.39829166      0.08989840
O       3.01685110      0.22788870     -0.51038625
O      -2.82900324      0.24581617      0.20309956
H      -1.48996176      0.98380952     -1.22566123
H      -1.45914678      1.72291294      0.36882086
H      -1.44248883     -1.33905275      1.23771599
H       1.86848403     -1.40629698     -0.31306991
H       2.00647112     -0.44005680      1.17920952
H       3.16761369      1.07633331     -0.08085383
H      -3.05694877     -0.45769445     -0.41258444
