17
b3lypvtz=-215237.69934166528
C      -1.90228387     -0.93452945     -0.45476820
N      -0.76497591     -0.02874792     -0.48484283
C      -1.00980653      1.17081717      0.30082987
C       0.47396172     -0.70442979     -0.11245457
C       1.68945627      0.08802142     -0.45300884
N       2.54566489      0.43964847      0.46232113
O       3.62372551      1.08279381      0.34011213
H      -1.71667646     -1.78736122     -1.10868222
H      -2.79102065     -0.41793343     -0.81779947
H      -2.12331485     -1.31862235      0.55636210
H      -1.90587810      1.67069834     -0.06680541
H      -0.17434037      1.86301162      0.20337561
H      -1.15573780      0.95551347      1.37447370
H       0.49982638     -1.65227416     -0.65826855
H       0.49961944     -0.96610430      0.96467173
H       1.90563045      0.39874877     -1.46470529
H       2.30614987      0.14074956      1.41918906
