11
b3lypvtz=-233894.95899864
N      -2.19882605     -0.91436617      0.00015600
N      -1.86379296      0.27536225      0.00003936
C      -0.42026002      0.49713538      0.00005771
N       0.01310638      1.68458385     -0.00006775
N       0.34684124     -0.65094954      0.00010956
C       1.72686324     -0.77888183      0.00008977
O       2.53356422      0.10843961      0.00000595
H      -3.22630953     -0.94905309      0.00024342
H      -0.78699012      2.31670563     -0.00009980
H      -0.19904430     -1.50346119      0.00017177
H       2.00477589     -1.84876291      0.00014401
