18
b3lypvtz=-205207.79079737
N       2.86960913      0.02502886      1.41760623
C       2.31643451     -0.62639660      0.21921915
C       0.82822974     -0.83951324      0.23595864
C      -0.02823230     -0.29950868     -0.62627663
C      -1.51614409     -0.48890641     -0.60210604
C      -2.29387801      0.82181624     -0.54115120
O      -2.04135546      1.54532105     -1.74457456
H       2.36565695      0.88649085      1.59851568
H       2.72834470     -0.56241697      2.23212654
H       2.83168360     -1.58492173      0.10817108
H       2.58905326     -0.02547778     -0.65117442
H       0.44921331     -1.47378554      1.03642351
H       0.35135201      0.33578256     -1.42136088
H      -1.80353583     -1.10720219      0.25189001
H      -1.83823534     -1.01711719     -1.50599975
H      -3.36405089      0.60591129     -0.43743941
H      -1.97757577      1.40015339      0.33511373
H      -2.46666953      2.40494209     -1.68584167
