13
b3lypvtz=-213763.57992644
C       0.74603491     -1.71720703     -0.00000134
C       0.95847654     -0.22964012      0.00000136
N       2.08936992      0.34813315     -0.00000361
C      -0.23371180      0.71872891      0.00001039
N      -0.10312612      1.98294323      0.00000867
C      -1.66394985      0.25187884      0.00001253
O      -2.03627843     -0.89445894     -0.00001108
H       1.70718121     -2.23092424     -0.00000769
H       0.16831589     -2.03084213      0.86954968
H       0.16830677     -2.03083716     -0.86954794
H       2.85527257     -0.32365761     -0.00001002
H       0.89709206      2.21360092     -0.00000070
H      -2.36767366      1.10360219     -0.00000325
