11
b3lypvtz=-217962.74981302
C      -2.84200008      0.01968013      0.10807912
C      -1.64625365     -0.03179062      0.00644659
C      -0.22535357     -0.06019852     -0.09743209
C       0.41728446     -1.22936119      0.03363927
F       1.75165642     -1.32585480     -0.08337990
N       0.40500417      1.15253410     -0.45163258
C       1.34257123      1.60428848      0.26593505
H      -3.89913753      0.06208596      0.19226519
H      -0.07353292     -2.17964913      0.17855075
H       1.84240697      2.51750936     -0.04684420
H       1.67918351      1.13407624      1.19292480
