12
b3lypvtz=-252163.5231605
N      -2.86764529     -0.59302992     -0.00009450
C      -1.85153336      0.16003888     -0.00005664
N      -0.51284885     -0.24044627     -0.00001552
C       0.54533592      0.63553607      0.00003792
O       0.44838111      1.84262861      0.00006484
C       1.91973604     -0.01762240      0.00014825
F       1.84735519     -1.40956645      0.00012255
H      -2.62153225     -1.58445486     -0.00009411
H      -1.96247369      1.23925891     -0.00005348
H      -0.29519332     -1.22660649     -0.00002243
H       2.46114443      0.30384905      0.88998371
H       2.46131907      0.30387387     -0.88957158
