14
b3lypvtz=-224596.78167154
C       1.73980848     -1.49259532     -0.01964258
N       0.85392456     -0.33995756     -0.00450343
C       1.34916895      0.92453186      0.01739918
O       0.70553811      1.96007568      0.05692317
N      -0.48042406     -0.71852765      0.06783339
C      -1.41419724      0.15395140     -0.04475818
N      -2.71898898     -0.26172018     -0.05101451
H       2.77358715     -1.15578699     -0.04440575
H       1.54263888     -2.10724023     -0.89842334
H       1.58023274     -2.10065983      0.87147424
H       2.45168087      0.91960914     -0.00421715
H      -1.24826470      1.21547880     -0.17026715
H      -3.41468716      0.40885057      0.22536113
H      -2.88878060     -1.21120768      0.24313797
