13
b3lypvtz=-242031.74801637
C      -1.74020754     -1.27222671     -0.34623225
C      -1.58332686      0.21642183     -0.38850743
C      -0.45597921      0.87249766     -0.15515717
O       0.71676528      0.24780151      0.15714681
N       1.80887084      1.10887153      0.37193513
C       2.84387637      0.43549969      0.65361737
F      -0.37794858      2.19900101     -0.20722222
H      -0.80495948     -1.76985797     -0.09737404
H      -2.08040099     -1.65956002     -1.31021272
H      -2.48588172     -1.56825911      0.39632384
H      -2.44061406      0.83083780     -0.62550379
H       2.85706375     -0.64900160      0.71361183
H       3.74274221      1.00797438      0.83757464
