14
b3lypvtz=-227007.82762581
C      -1.42464127     -0.77544131      0.42559288
C      -0.05189115     -0.16651615      0.73963319
O      -0.66157732      1.18747047      0.71818876
C      -1.90148416      0.67198817      0.43447293
O      -2.91742822      1.26600347      0.27811832
C       1.03904282     -0.29021678     -0.29491385
N       2.16917198      0.55945921      0.06844537
H      -1.87013348     -1.39462509      1.20082189
H      -1.52152411     -1.26771178     -0.54070468
H       0.33290782     -0.35887383      1.73930398
H       1.37402561     -1.33143242     -0.30460645
H       0.60804391     -0.07779955     -1.28466858
H       2.93200808      0.44335836     -0.58670378
H       1.89347951      1.53433724      0.03514028
