12
b3lypvtz=-257138.04682154
C      -2.20065997      0.73129828     -0.00000638
C      -1.10808210     -0.31751732     -0.00001534
N      -1.30986871     -1.57526983     -0.00004029
C       0.29390885      0.15503136      0.00001064
F       0.47394793      1.49373692      0.00003620
C       1.35883785     -0.64238519      0.00002253
F       2.60074324     -0.15257330      0.00004343
H      -2.83027975      0.60083114     -0.88133175
H      -1.81480307      1.74639986     -0.00011918
H      -2.83011795      0.60097758      0.88145765
H      -2.30654177     -1.78706957     -0.00005645
H       1.28374744     -1.71752993     -0.00000606
