18
b3lypvtz=-181911.54726818
C      -0.52990187      1.62508019     -0.35244348
C      -0.20162147      0.37048574     -0.04602622
C      -1.21352520     -0.73177364      0.18241608
C      -2.68059787     -0.31789020      0.11957989
C       1.24949931      0.00927307      0.07287417
C       1.64915035     -1.40051045     -0.30643615
N       2.07287017      0.89590469      0.47133631
H       0.24141312      2.36663740     -0.50246871
H      -1.55770179      1.94344615     -0.45173554
H      -1.03972253     -1.53245803     -0.54366528
H      -1.01221547     -1.18670605      1.15909331
H      -2.94522282      0.07388637     -0.86373488
H      -3.32360930     -1.17616933      0.31799149
H      -2.91234129      0.44966951      0.85933034
H       1.19860110     -2.13484121      0.36431871
H       2.73139172     -1.51561231     -0.26226537
H       1.31258350     -1.64501484     -1.31654908
H       3.02511635      0.52980394      0.47250242
