13
b3lypvtz=-213670.75142086
C       0.90653284      0.78157806     -0.15028026
C      -0.18938206      0.08848618      0.85288821
C      -1.52465709      0.00832346      0.07964801
O      -0.98999588     -0.75522027     -1.06170290
C       0.21124053     -1.11431121     -0.48160278
N       0.25808163     -1.36637724      0.78673913
N       1.26515309     -0.39276579     -1.11098677
H       0.52006539      1.62532887     -0.71571847
H       1.80441458      1.05425273      0.39599390
H      -0.18834313      0.46868007      1.86961581
H      -1.92256457      0.93779341     -0.32490943
H      -2.28431811     -0.55344981      0.61941892
H       2.13377277     -0.78231846     -0.75910337
