13
b3lypvtz=-211346.62417580123
C      -1.23225614      0.79080072     -0.41175854
C      -0.51190849     -0.30374806      0.33626952
N       0.74170818     -0.56332371      0.25717495
C       1.57260647      0.17325132     -0.55831147
N       2.83634289     -0.13718125     -0.59618817
N       3.94344643     -0.40067637     -0.63647533
N      -1.28836265     -1.07182935      1.16522271
H      -2.29599381      0.81341683     -0.18054333
H      -0.81169237      1.76663404     -0.16088550
H      -1.12400913      0.65330389     -1.48946370
H       1.29472746      1.00528795     -1.19200688
H      -0.85380148     -1.81278479      1.68496777
H      -2.27080736     -0.91315122      1.26426109
