10
b3lypvtz=-199797.15982406
C       0.12676972      0.92189839     -0.07899558
C       0.77068930     -0.29041933     -0.00230612
N      -0.14321453     -1.31820421      0.11207206
C      -1.31275076     -0.73814977      0.10386444
N      -1.20358486      0.61961988     -0.01008135
C       2.17361975     -0.50813994     -0.03155619
N       3.31635791     -0.65571957     -0.05786001
H       0.49791627      1.92609454     -0.17266478
H      -2.26451412     -1.23769082      0.17605447
H      -1.96128867      1.28071083     -0.03852694
