16
b3lypvtz=-227754.47911066
N       0.64177585      1.40836375      0.75500251
C       0.42872800      0.05406737      0.47506462
C      -0.86266019     -0.53755546      0.96222438
C      -2.05078396     -0.19943388      0.05088755
O      -1.91377876     -0.76021162     -1.24333608
C       1.33247127     -0.68392222     -0.18205681
O       2.46020795     -0.08374662     -0.72319545
H       1.38025878      1.82468558      0.20751722
H      -0.19070603      1.97741678      0.75192268
H      -1.06939395     -0.17338786      1.97338781
H      -0.77277862     -1.62341209      1.01479722
H      -2.18555222      0.89002671     -0.00969243
H      -2.96735502     -0.61450459      0.47172374
H      -1.00856012     -0.59227167     -1.53618803
H       1.21378982     -1.74893535     -0.32603015
H       3.19914820     -0.69670381     -0.68629978
