13
b3lypvtz=-213779.73017542
C      -0.66141345     -0.77328116     -0.87825763
N      -0.07877811      0.14645142      0.08470889
C      -0.94597805      1.20089615      0.58912589
C       1.19812504      0.08139170      0.53582630
O       1.71031040      0.83495855      1.34162656
C       2.01268037     -1.01695229     -0.02434579
N       2.71819773     -1.84108479     -0.40830448
H      -0.99157912     -0.23062852     -1.76687023
H      -1.52588833     -1.27815056     -0.44146375
H       0.06341781     -1.52398274     -1.17907713
H      -0.38248562      1.82219161      1.27721623
H      -1.31320248      1.81145624     -0.23850677
H      -1.80340619      0.76673440      1.10832191
