14
b3lypvtz=-224586.09826
C       2.36727191      1.04770124      0.02642118
O       2.25752841     -0.37806439     -0.03092782
C       1.02280326     -0.89156486     -0.02559079
N      -0.03418826     -0.18926614      0.02914275
N      -1.19485612     -0.98717046      0.03097840
C      -2.26687477     -0.28198219      0.00982599
N      -2.36452237      1.07662252     -0.07756226
H       3.43221200      1.26183361      0.00425883
H       1.92007442      1.43034628      0.94431548
H       1.86749853      1.50545646     -0.82761862
H       1.02573352     -1.97710017     -0.07404851
H      -3.20641465     -0.82339144      0.02352136
H      -3.22042080      1.51372040      0.21291823
H      -1.51044007      1.58787015      0.07586879
