11
b3lypvtz=-236272.90099182
N      -1.04379608      0.18429545     -1.76211437
C      -0.44402183     -0.01405611     -0.65742702
C      -1.24778073     -0.14884329      0.63484330
O      -2.40795456      0.17137066      0.66625071
C       1.02391908     -0.19109904     -0.71209149
N       1.91116220     -0.04232992      0.19067611
O       1.39273585      0.35272878      1.42623913
H      -2.04769663      0.29128564     -1.58241735
H      -0.73768653     -0.57865667      1.50636347
H       1.42171968     -0.44392707     -1.68769575
H       2.17949954      0.41933157      1.97747327
