16
b3lypvtz=-227750.54739357
N       2.57449738      0.30301726     -0.02404558
C       1.42336071     -0.51491180     -0.41879517
C       0.25526990     -0.25871871      0.52835727
C      -0.38184528      1.12848659      0.36380825
O      -1.46867243      0.88080633     -0.52792845
C      -1.94674875     -0.38113280     -0.14097271
O      -0.81602146     -1.16194063      0.21229247
H       3.26568868      0.32674234     -0.76278592
H       3.03286784     -0.09271502      0.78862924
H       1.11746457     -0.22316426     -1.42543491
H       1.61888340     -1.59370295     -0.43988742
H       0.57264487     -0.43028952      1.56174996
H      -0.75299000      1.51662760      1.31923914
H       0.29129868      1.85277843     -0.08650502
H      -2.62115487     -0.29373894      0.72493738
H      -2.46376024     -0.84172491     -0.98259255
