15
b3lypvtz=-193610.84698295
C      -1.50549626     -0.83241296      0.52749386
C      -0.28693151     -0.01859827      0.21343613
C      -0.31401633      1.36361660     -0.31655573
C       0.33031824      0.28898333     -1.18758076
C       1.66735274     -0.06411602     -0.63730737
O       2.73267847     -0.29475017     -1.13894919
C       1.11474559     -0.29085723      0.79021211
H      -2.32940027     -0.58537040     -0.14371788
H      -1.84367010     -0.64396363      1.54973199
H      -1.30287641     -1.90148786      0.43667475
H      -1.26416765      1.71181890     -0.70160731
H       0.29921526      2.14332907      0.12025984
H      -0.03600217      0.08211879     -2.18349283
H       1.27831724     -1.32861425      1.08482393
H       1.45993315      0.37030410      1.58657844
