15
b3lypvtz=-214524.89634535
C       2.60722177      0.54938634      0.02900173
N       1.23429703      0.13458333      0.24722138
C       0.71548521     -0.99745075     -0.29954404
N      -0.48232871     -1.45438363     -0.24741476
C      -1.46321991     -0.69144707      0.52825650
C      -1.83928714      0.54692823     -0.25402253
O      -1.34649940      1.63583949     -0.06074953
H       3.20293131     -0.31360360     -0.26543552
H       3.03444267      0.95178881      0.94818550
H       2.69270115      1.30909156     -0.75328595
H       0.58563422      0.84888674      0.54670478
H       1.45092044     -1.60478467     -0.82611362
H      -2.34353270     -1.32044171      0.67138558
H      -1.08324952     -0.38390579      1.51063463
H      -2.55157643      0.39507770     -1.08709515
