15
b3lypvtz=-237860.44125098
N       2.53659533      0.09397346      0.48899447
C       1.17272043      0.47423683      0.12250834
C       0.36683461     -0.77759950     -0.23360233
N      -0.98986668     -0.48577444     -0.66310868
C      -2.01791719     -0.37573024      0.21025128
O      -1.96235326     -0.54343685      1.40881334
O      -3.17248168     -0.05013867     -0.44392020
H       3.01141175      0.85608570      0.95493847
H       3.08363201     -0.13366124     -0.33283650
H       0.70365938      0.94794684      0.98575484
H       1.11224273      1.18949138     -0.71090956
H       0.86483402     -1.32728123     -1.03549108
H       0.32057562     -1.43083351      0.63515500
H      -1.17741548     -0.26898510     -1.62627729
H      -3.85237158      0.00130658      0.23962989
