17
b3lypvtz=-194395.24472515
C      -2.72829801     -0.66727115      0.00001313
C      -2.07102184      0.67233366      0.00004404
C      -0.76467067      0.96728541      0.00002794
C       0.37518300      0.01501618     -0.00000427
O       0.25204498     -1.19596465     -0.00015872
C       1.75156509      0.66693628      0.00019063
C       2.90789853     -0.32212298      0.00011894
H      -3.38089599     -0.75684322     -0.87399472
H      -3.38126154     -0.75671505      0.87375706
H      -2.01202230     -1.48073136      0.00019665
H      -2.75492773      1.51761860      0.00007784
H      -0.48597453      2.01542455      0.00006703
H       1.80059900      1.33310242      0.86915416
H       1.80072685      1.33338583     -0.86854742
H       2.86978270     -0.96809491      0.87675652
H       3.86364080      0.20304615      0.00036352
H       2.87001765     -0.96769776     -0.87682233
