12
b3lypvtz=-223819.61180309
C      -1.84359838      0.00693720      1.03300116
N      -0.82359179     -0.04837977     -0.01771615
N       0.43487838     -0.45423205      0.55280399
C       1.40345401      0.03718563     -0.12222210
O       1.29758374      0.82640209     -1.19815764
C       2.75543553     -0.24819318      0.28480226
N       3.83828417     -0.47652725      0.59732240
H      -2.80847088      0.19011065      0.56102400
H      -1.88903911     -0.91451407      1.61976840
H      -1.62244454      0.83635119      1.70187841
H      -1.07842960     -0.77769950     -0.68006130
H       0.33593848      1.02265908     -1.24394344
