13
b3lypvtz=-237048.92679755
O      -2.24189551      1.37013624      1.65723471
C      -1.73938532      0.95338343      0.64815232
C      -1.31377016     -0.49257851      0.44115142
N      -0.27855472     -0.69820323     -0.56324662
N       0.86028709      0.12509518     -0.22226744
C       1.95957259     -0.41364743     -0.54162963
O       3.13521229      0.19447699     -0.33149842
H      -1.58265739      1.61370574     -0.23284466
H      -0.99397368     -0.90534079      1.39780487
H      -2.20002175     -1.05369423      0.12596342
H      -0.61808249     -0.35300437     -1.45696627
H       2.06006746     -1.39175932     -1.00417479
H       2.95330158      1.05173029      0.08242107
