17
b3lypvtz=-191957.13477673
C      -3.14345901      0.02455540     -0.32747354
N      -2.08870850      0.08973892      0.38180287
N      -0.87703638      0.00411595     -0.22310485
C       0.21030695     -0.47876423      0.62407863
C       1.55570888     -0.09400916      0.05700638
C       2.43665702     -1.02697684     -0.29447367
C       1.83463487      1.37792495     -0.06334766
H      -4.09682754      0.15240628      0.16640545
H      -3.13095023     -0.14081532     -1.40809268
H      -0.88861114     -0.41265214     -1.15217099
H       0.16330856     -1.56419745      0.77206463
H       0.06087874     -0.00961950      1.59871658
H       3.41319500     -0.76877168     -0.68406927
H       2.21433038     -2.08192564     -0.19325169
H       2.80385715      1.56562558     -0.52330422
H       1.06214393      1.87207858     -0.65488853
H       1.82295532      1.85321429      0.92210457
