18
b3lypvtz=-181887.24978131684
C       2.67041111     -0.72876778     -0.02768969
C       1.75660139     -0.21288712      1.04433762
C       0.56686875      0.31576302      0.83594376
C      -0.64140709      0.91522572      1.40477040
C      -0.47883937      0.69841387     -0.11463143
C      -1.32664068     -0.33788388     -0.81611137
N      -2.61218022      0.24212103     -1.21862661
H       2.88906144     -1.79063183      0.11737806
H       2.23488632     -0.60266936     -1.01848347
H       3.63128917     -0.20666883     -0.00855399
H       2.11897215     -0.28316392      2.06677181
H      -1.34119708      0.27242308      1.92985722
H      -0.60313502      1.93130341      1.78059252
H      -0.32155875      1.60104946     -0.69764426
H      -1.41476503     -1.21891568     -0.16380143
H      -0.81491771     -0.66926630     -1.72354098
H      -3.14068777      0.51747773     -0.39838321
H      -3.17276162     -0.44292262     -1.71163656
