18
b3lypvtz=-202814.61136815
C       2.26070400      0.48741002      1.03969924
C       2.16039018     -0.34428119     -0.23292006
N       0.88497612     -0.13533593     -0.93041751
C      -0.24772668     -0.76512276     -0.32792522
C      -1.35112323     -0.05498049     -0.02905940
N      -1.52811680      1.27046896     -0.41788664
N      -2.43719944     -0.56184375      0.69511347
H       2.19439095      1.55191211      0.80970970
H       1.45318230      0.23799725      1.72896544
H       3.20859182      0.30171329      1.54842135
H       2.96069267     -0.06110750     -0.92075333
H       2.31420981     -1.40611950      0.01585814
H       0.98409230     -0.41576810     -1.89861431
H      -0.21171110     -1.82998569     -0.10140034
H      -0.66470367      1.64768151     -0.78761980
H      -1.91280055      1.84766743      0.31800067
H      -2.34949799     -1.54661786      0.89831261
H      -3.32594570     -0.36549381      0.25293499
