13
b3lypvtz=-239441.93235018
C       2.41187279      1.08943787     -0.41326124
C       1.42749912      0.44898471     -0.17489434
C       0.18780321     -0.29750093      0.07718816
C      -1.00921307      0.64605370      0.28767890
O      -2.14456199     -0.11276679      0.67376755
O       0.38152719     -1.10361641      1.21098121
O      -0.17209810     -1.08829265     -1.05213768
H       3.29141449      1.64794592     -0.61713650
H      -1.18635776      1.21765740     -0.62576696
H      -0.78814707      1.32880889      1.10500637
H      -2.38228109     -0.67290947     -0.07462759
H      -0.50660471     -1.31897526      1.53378438
H       0.48914699     -1.78482697     -1.13933932
