16
b3lypvtz=-204432.21533637
C      -0.72462462      0.12878066     -1.10089022
C      -0.61938657     -1.11481137     -0.17168805
C      -0.87249596     -0.15031917      1.00825822
C      -0.00937163      0.78489399      0.10272646
C       1.33596368      0.03581762      0.10899909
N       0.83865025     -1.36540000     -0.03340905
O       0.00588227      2.17739686      0.20603167
H      -1.74101798      0.49861037     -1.22199386
H      -0.20096224      0.10285795     -2.05767813
H      -1.20487555     -2.01571600     -0.32431357
H      -0.48237667     -0.44272441      1.98275207
H      -1.90446836      0.18692325      1.07219309
H       1.97839362      0.35220827     -0.71517839
H       1.88236867      0.17022296      1.04728625
H       1.20035724     -1.77807219     -0.88526428
H       0.51796384      2.42933121      0.98216871
