16
b3lypvtz=-181111.15431576
C      -2.49377184     -0.02047761      0.35601468
C      -1.27804250      0.69076609     -0.15589240
C      -0.05120785      0.19005724     -0.16781765
C       0.56774391     -1.17077955      0.10685904
N       1.86688377     -0.73462463     -0.53642475
C       1.25515556      0.66217341     -0.69468557
C       2.34290994      0.38716117      0.27492495
H      -3.25583908     -0.11348918     -0.42300110
H      -2.25586398     -1.02251480      0.71410914
H      -2.95577689      0.52885273      1.18129707
H      -1.42769681      1.69045205     -0.55443873
H       0.68562245     -1.48838723      1.14568926
H       0.11867394     -1.98033331     -0.46768080
H       1.41316278      1.26547092     -1.57949829
H       3.33788330      0.71566571      0.00189482
H       2.13016332      0.40000698      1.33906747
