12
b3lypvtz=-226242.11449902
N      -3.13573980      0.37106280     -0.39390056
C      -1.94864885     -0.05526724     -0.56489852
C      -0.76754718      0.28341996      0.21939387
C       0.42621575     -0.23491141     -0.06361868
O       1.52276769      0.10284468      0.69410788
C       2.72550216     -0.45282600      0.37046179
O       2.92461238     -1.21841812     -0.52258138
H      -3.18132771      1.01564309      0.39874444
H      -1.78612232     -0.75367442     -1.38880779
H      -0.87484088      0.97331958      1.04906026
H       0.61990449     -0.92759299     -0.87039886
H       3.47532426     -0.07409992      1.07243754
