16
b3lypvtz=-204441.49304511
C       2.96975863     -0.41487596     -0.11156811
C       1.73746517     -0.26365271      0.35645357
O       0.86242371      0.63717773     -0.17023991
C      -0.50513214      0.39640490     -0.04826029
C      -1.26495553      1.67208985      0.09858971
C      -1.00675154     -0.83947436     -0.13129456
N      -2.36577978     -1.19490983     -0.10495794
H       3.65362792     -1.08335710      0.38870120
H       3.31830408      0.13419762     -0.97468701
H       1.35565270     -0.81654146      1.20958358
H      -2.33931487      1.52094969      0.00287202
H      -0.96099112      2.37701928     -0.67884072
H      -1.06561002      2.14887206      1.06245698
H      -0.33611228     -1.66783567     -0.31744482
H      -2.96744040     -0.52512799      0.35017440
H      -2.52598853     -2.11401603      0.27868590
