16
b3lypvtz=-204432.62230764
C       3.23265115      0.29578609     -0.12049540
C       1.83339397     -0.03018162      0.11778436
C       0.68349447     -0.32196372      0.31373615
C      -0.72942037     -0.66629750      0.54709736
O      -1.24880736     -1.51876537     -0.46291145
C      -1.59787572      0.60009449      0.65186764
N      -1.67469013      1.22665130     -0.67012389
H       3.52659368      0.03121226     -1.13824016
H       3.42107393      1.36282975      0.01433478
H       3.88494863     -0.24767296      0.56594017
H      -0.80317646     -1.21976147      1.48633333
H      -1.48571415     -0.92338199     -1.19067935
H      -2.60283418      0.28668576      0.93698476
H      -1.20476077      1.25203752      1.44013341
H      -0.82453856      1.73756062     -0.87569278
H      -2.44687413      1.87647085     -0.72713093
