13
b3lypvtz=-213749.55840923
C      -2.75312377     -0.28225209      0.27420611
C      -1.35535217     -0.67569985     -0.03782804
N      -0.37871106      0.11790821      0.17809285
N       0.84453557     -0.45327242     -0.18835673
C       1.84026707      0.31782299      0.01740465
C       3.18694545     -0.18085595     -0.33393656
O       4.19086332      0.47239364     -0.17733997
H      -3.36795968     -0.32882398     -0.62887507
H      -2.79169696      0.72278822      0.68778214
H      -3.19316058     -0.98662527      0.98549380
H      -1.16604953     -1.66456904     -0.46026522
H       1.74060733      1.31804116      0.43675531
H       3.20293500     -1.20325563     -0.75323325
