16
b3lypvtz=-227776.9226898
C       2.79143290     -0.22862531     -0.13147671
O       1.62866538      0.61148554     -0.22133676
C       0.46045673      0.04205646      0.13437389
O       0.37160929     -1.09934697      0.51944967
C      -0.68641203      1.01525010     -0.01254199
C      -2.03591676      0.42111514      0.37461595
N      -2.42748592     -0.63391723     -0.56249443
H       3.62561672      0.39212706     -0.44458924
H       2.69046497     -1.09177775     -0.78759519
H       2.93533092     -0.57589977      0.89045957
H      -0.70892440      1.35178496     -1.05141410
H      -0.45598378      1.89337004      0.59635219
H      -1.99310887      0.08903279      1.42013211
H      -2.78204333      1.21608470      0.32083396
H      -3.38866235     -0.90771000     -0.40008350
H      -1.85502546     -1.45384076     -0.39728646
