13
b3lypvtz=-213734.62526507233
C      -2.24451667     -0.02242129      0.31256372
C      -0.96550946      0.27475750      0.09570410
C       0.13102568     -0.70430623      0.30381265
C       1.50909327     -0.25858201      0.15233111
N       2.40476352      0.51622210      0.57439724
N       1.07266516     -1.08271570     -0.85587775
O      -0.60595111      1.50444211     -0.39171074
H      -3.01745450      0.71834208      0.17110850
H      -2.52905698     -1.01680330      0.61995987
H      -0.11744084     -1.56253665      0.91302351
H       3.19916649      0.54968118     -0.06691461
H       0.88509776     -0.64898773     -1.75584990
H       0.27811769      1.73290793     -0.07254770
