17
b3lypvtz=-191965.74281992
C       2.86527157      0.45831901      0.21169138
C       1.58223230      0.17545343      0.01421030
C       0.81613502     -0.95850303     -0.64678064
C      -0.42009095     -0.01812453     -0.56807919
N       0.39440519      0.87864152      0.29405549
C      -1.68412558     -0.53478723      0.08800967
N      -2.60413787      0.57740452      0.34173475
H       3.17873040      1.38490060      0.67382126
H       3.63108976     -0.24355368     -0.08373401
H       1.14776437     -1.23428285     -1.64519037
H       0.72623870     -1.85590066     -0.03397272
H      -0.66480090      0.43721351     -1.53121776
H       0.35327262      1.88351252      0.19467737
H      -1.40711398     -1.09391131      0.99268613
H      -2.17056376     -1.23624440     -0.59529996
H      -2.23983527      1.14734077      1.09732041
H      -3.50447161      0.23252180      0.65150270
