15
b3lypvtz=-214516.66903098
C       1.72006163      1.44773226      0.79426938
N       1.71991541      0.19955222      0.60809416
C       0.53075457     -0.54824593      0.64514338
N      -0.02643486     -0.97052615      1.70528099
C      -0.03202256     -0.92532017     -0.71090711
C      -1.36687026     -0.23989097     -0.96298829
O      -1.13900176      1.17145356     -1.00141447
H       2.66725723      1.98253355      0.78687341
H       0.80850370      2.02779696      0.95270162
H       0.46397785     -0.63830984      2.53530066
H       0.67228648     -0.66186365     -1.49942137
H      -0.18708069     -2.00485265     -0.73334236
H      -1.78226780     -0.58962238     -1.91462960
H      -2.06078078     -0.50151268     -0.15966234
H      -1.98829817      1.61907588     -1.04529806
