15
b3lypvtz=-191214.57231304
C       2.65909336     -0.74078999      0.40307522
N       1.76738284     -0.52734910     -0.46404853
C       0.68116534      0.33455433     -0.17964109
N       0.78808215      1.59482566     -0.01708088
C      -0.62105148     -0.35926429     -0.18032887
C      -1.77475044      0.24702717      0.09678916
C      -3.10932972     -0.42018757      0.11715000
H       2.62817134     -0.31648091      1.41202636
H       3.50776206     -1.37255253      0.15060877
H       1.76140222      1.89017936     -0.06429629
H      -0.59411147     -1.41646989     -0.41680695
H      -1.74516636      1.30836594      0.32191796
H      -3.57989408     -0.31795521      1.09937072
H      -3.04042210     -1.48122937     -0.12311801
H      -3.78814664      0.05236939     -0.59871058
