19
b3lypvtz=-192737.5728714
C       3.28892162      0.44017962      0.35677956
C       2.00692475      0.24946886     -0.39609754
C       0.98853694     -0.49912276      0.03712496
N      -0.17484915     -0.81388909     -0.65590421
C      -1.41006393     -1.04435930      0.07851939
C      -2.04656234      0.20015192      0.71968885
N      -2.43025752      1.27431515     -0.19354612
H       3.25835130     -0.06586281      1.32352219
H       4.14907379      0.04473351     -0.19308675
H       3.49729388      1.49816023      0.54286338
H       1.92839565      0.73578790     -1.36532963
H       1.05206666     -0.98314917      1.00799465
H      -0.29648725     -0.30273303     -1.51755351
H      -2.12631623     -1.50330189     -0.60914506
H      -1.20607080     -1.78506335      0.85798682
H      -1.35411101      0.62072073      1.45278263
H      -2.93611113     -0.11303701      1.27423038
H      -1.61775510      1.66657313     -0.65331653
H      -3.05564313      0.93589037     -0.91604746
