17
b3lypvtz=-240979.19693307
C      -2.04311675      1.13457225     -0.33240554
O      -1.78181511     -0.25791845     -0.18907765
C      -0.88477828     -0.59700220      0.85789309
C       0.56086316     -0.64241238      0.36287164
O       0.64194656     -1.33499219     -0.85484249
O       1.02823937      0.68712981      0.26425061
C       2.40334845      0.78663246     -0.07651637
H      -1.14186645      1.69296966     -0.59014313
H      -2.77786926      1.23243969     -1.12969681
H      -2.46501860      1.54543303      0.59113046
H      -0.97187965      0.09761322      1.69787907
H      -1.16445870     -1.59719457      1.19126772
H       1.19099828     -1.19650125      1.07013409
H      -0.15089236     -1.09330177     -1.35539918
H       2.65193023      1.84578059     -0.08809330
H       2.60473884      0.35256154     -1.05754711
H       3.02842026      0.28128756      0.66951789
