20
b3lypvtz=-182659.77947449
C       2.12618030     -1.01161151      0.20958473
N       0.81934543     -0.81591989     -0.40778691
C       0.12951301      0.40337345     -0.05410034
C       0.75766618      1.71020137     -0.50624677
C      -0.58752549      0.37614612      1.27344361
C      -1.38302294      0.33113975     -0.00915740
C      -2.15218123     -0.90702210     -0.40089191
H       2.87080401     -0.23779528     -0.02418795
H       2.01158570     -1.04323167      1.29419875
H       2.53083434     -1.97305119     -0.10892156
H       0.89114590     -0.89502043     -1.41531356
H       0.84920051      1.73893639     -1.59604697
H       1.75557775      1.84520101     -0.08320408
H       0.15434780      2.56650449     -0.20154498
H      -0.52660841     -0.54267870      1.84124085
H      -0.60483006      1.27799856      1.87080959
H      -1.87541349      1.26059575     -0.27389156
H      -2.37367432     -0.91399172     -1.47132776
H      -3.10472005     -0.95550163      0.13200982
H      -1.58303995     -1.80613478     -0.17181358
