15
b3lypvtz=-191200.42548219
C      -2.52462966     -0.28137708     -0.05254096
N      -1.61222854      0.61516985      0.02959046
N      -0.33273445      0.26338719      0.15838079
C       0.68666190      1.20221916      0.01114490
C       1.88720423      0.63335076     -0.08790250
C       1.74892608     -0.87087530      0.01713054
C       0.21552301     -1.09226372     -0.00463142
H      -3.54496761      0.06576947     -0.13370790
H      -2.33950919     -1.35253803     -0.03271119
H       0.41198437      2.24467618      0.00260037
H       2.82503149      1.15596734     -0.17306295
H       2.18448123     -1.24507061      0.94800104
H       2.24349713     -1.40271491     -0.79735342
H      -0.13036075     -1.50759934     -0.95847355
H      -0.13325624     -1.75051998      0.79204876
