16
b3lypvtz=-204438.34922892
C      -2.22484183     -0.44047194     -0.58012868
C      -0.79930931     -0.74672410     -0.19502166
C      -0.30754004     -0.54625240      1.21125383
C       0.18393364      0.36766954      0.11388224
O      -0.34665465      1.66949306      0.05002526
C       1.57574375      0.26741979     -0.41426282
N       2.42761755     -0.66049807     -0.27597460
H      -2.31056695     -0.26188470     -1.65326246
H      -2.59005697      0.44595408     -0.06496609
H      -2.87490744     -1.28031329     -0.32617133
H      -0.35109741     -1.57857059     -0.72618844
H      -0.99575834     -0.10012844      1.91687278
H       0.38518065     -1.25924848      1.64021144
H       0.03293900      2.19121167      0.76484757
H       1.86187006      1.13292003     -1.01702850
H       2.07147029     -1.41863617      0.31081044
