11
b3lypvtz=-210579.89735139
N      -3.63406250     -0.42133684      0.00000561
C      -2.56746855      0.02146154     -0.00001162
C      -1.27341250      0.59344357     -0.00000929
C      -0.16409744     -0.16739184      0.00001092
N       1.10927600      0.32460560      0.00001764
N       2.15965285     -0.51878625      0.00003523
N       3.25162756      0.07800649      0.00003301
H      -1.21580884      1.67483921     -0.00002214
H      -0.20986592     -1.24736710      0.00002649
H       1.31712748      1.31984225      0.00000064
H       3.96912986     -0.64925865      0.00005351
