12
b3lypvtz=-226216.6918814
C      -1.05923775      0.49023584      0.32124709
C      -0.18285755     -0.17938386     -0.70224379
C       1.28331641     -0.28109377     -0.57010004
O       0.44442947     -1.40516922     -0.29976076
C       1.98799843      0.29782402      0.55317461
N       2.57423677      0.77130747      1.42267154
O      -2.33180233     -0.13353598      0.38812169
H      -1.24046091      1.52379303      0.02139452
H      -0.55957971      0.50032447      1.29416552
H      -0.58398757     -0.20668785     -1.71171088
H       1.88494807     -0.36003613     -1.46962044
H      -2.21700334     -1.01757802      0.75266092
