15
b3lypvtz=-247835.62359591
F       1.04253927     -1.06836739     -0.74375688
C       1.13505588     -0.26569303      0.36851935
F       2.08151842      0.68589419      0.08613970
C      -0.18388180      0.38621261      0.68541187
C      -1.37888663     -0.60306118      0.80669773
C      -1.92051390     -0.09539757     -0.55639181
C      -0.89095597      1.06475242     -0.52215407
H       1.52102214     -0.88584482      1.18160642
H      -0.01854743      1.02632919      1.55232030
H      -1.12402390     -1.66098444      0.86279007
H      -2.02910351     -0.35987855      1.64554658
H      -1.73252893     -0.79631337     -1.36727405
H      -2.97084074      0.19057113     -0.57930146
H      -0.28193494      1.20406121     -1.41282990
H      -1.33141898      2.02241961     -0.25016086
