13
b3lypvtz=-216162.55672117
C       2.60500100     -0.70740237     -0.17884021
C       1.53069035     -0.18307041     -0.25939104
C       0.24587762      0.49795194     -0.36579178
C       0.19383975      1.76899163      0.51684762
C      -0.91685167     -0.41590245      0.01654741
O      -0.88136556     -1.33617139      0.78446569
O      -2.05354298     -0.01431973     -0.60461460
H       3.54915013     -1.18601686     -0.10258769
H       0.08799562      0.79932506     -1.40389408
H       0.32480962      1.50582744      1.56554028
H       0.99440351      2.44782276      0.22857875
H      -0.76164850      2.27659365      0.39152242
H      -2.76434587     -0.59194928     -0.28831180
