16
b3lypvtz=-181146.64227947
C      -2.26407779     -0.46220648     -0.57158454
C      -1.59566702      0.47446722      0.08904607
C      -0.24298058      0.37634627      0.74432795
C       0.41490092     -1.01896403      0.73506106
C       1.46094654     -0.86812277     -0.34069243
N       1.68526241      0.30838966     -0.75380065
C       0.81189679      1.23853919     -0.02857303
H      -3.22474084     -0.24583765     -1.01959429
H      -1.89337173     -1.47056678     -0.70057457
H      -2.04317047      1.46280964      0.16160132
H      -0.34219578      0.75138011      1.76477466
H      -0.27660020     -1.83883925      0.54197299
H       0.89733563     -1.24406730      1.69139171
H       2.02267813     -1.70996073     -0.73799917
H       0.35211319      1.93362661     -0.73263656
H       1.43207582      1.83147032      0.64928149
