18
b3lypvtz=-202812.09850646
C       3.63322353      0.28583065     -0.14716961
N       2.41433061     -0.44578862      0.11752419
C       1.31214828      0.15805524     -0.04534954
N       0.09545146     -0.45577298      0.09822646
C      -1.13005140      0.28017868      0.34394437
C      -2.32821952     -0.36831806     -0.34489442
N      -3.54473887      0.38770383     -0.04272433
H       3.46587418      1.33502624     -0.43281770
H       4.27533966      0.27211848      0.73727245
H       4.19477442     -0.19742207     -0.95148129
H       1.23831558      1.21108266     -0.34736048
H       0.15432053     -1.39124640      0.47316983
H      -1.33768140      0.37314250      1.41936003
H      -1.00894912      1.29400764     -0.03818105
H      -2.37736408     -1.42866682     -0.05464346
H      -2.16494347     -0.34584619     -1.42348215
H      -4.31561924      0.06700594     -0.61499250
H      -3.82291117      0.24809330      0.92197423
