18
b3lypvtz=-181914.89430958
C       2.34949158     -0.45117281     -0.45611365
C       1.20381954     -0.12828080      0.51512377
C       0.64434437      1.25888585      0.29356376
C      -0.57966574      1.24533547     -0.22115623
C      -1.10812591     -0.15406007     -0.42415924
N      -2.50332105     -0.28194078      0.00525505
C      -0.04947599     -1.02209891      0.31890235
H       3.17389186      0.25589269     -0.34318938
H       2.00902385     -0.40112036     -1.49248871
H       2.74268996     -1.45358904     -0.27536237
H       1.59594263     -0.22824316      1.53206144
H       1.22342254      2.15194879      0.49412064
H      -1.16098290      2.11349773     -0.50172396
H      -1.10682878     -0.38603840     -1.49531148
H      -2.85062365     -1.21488596     -0.18545472
H      -2.57389210     -0.13967803      1.00749542
H       0.17921896     -1.94838419     -0.21081992
H      -0.46248416     -1.29934902      1.29128024
