16
b3lypvtz=-204469.95649207
C      -2.55380264     -0.64074589     -0.01994189
C      -1.40500377      0.02549129     -0.10262207
C      -1.29385022      1.50010330      0.16484437
C      -0.13120347     -0.68522309     -0.49879764
N       0.87918621     -0.66103083      0.55451891
C       2.11587233     -0.12128644      0.40274002
O       2.53567767      0.41148668     -0.60289670
H      -3.48016282     -0.14628067      0.24342020
H      -2.60848670     -1.70298051     -0.22420499
H      -0.92579181      2.02650446     -0.72001102
H      -0.57861018      1.70319005      0.96509235
H      -2.25475859      1.92765280      0.44728660
H       0.32976694     -0.19859050     -1.35938197
H      -0.35104580     -1.71853924     -0.77453518
H       0.65339791     -1.07671984      1.44333958
H       2.72264495     -0.21933756      1.32077943
