18
b3lypvtz=-181903.07382577
C      -2.96184935      0.21299218     -0.62818110
N      -2.20003949     -0.54400188      0.02971196
C      -1.07456727      0.05942492      0.73988117
C       0.20926444     -0.60727331      0.33369299
C       1.36928661     -0.03524843      0.00551443
C       2.56082623     -0.87926713     -0.36514491
C       1.62828718      1.44711621     -0.02461614
H      -3.80810096     -0.21345169     -1.16322340
H      -2.82487661      1.30014856     -0.69803443
H      -1.03990125      1.14638556      0.60154478
H      -1.24886737     -0.12837862      1.80626522
H       0.14670038     -1.69059972      0.31621406
H       2.91015004     -0.63855249     -1.37396292
H       3.40185658     -0.68751689      0.30839329
H       2.33140029     -1.94349260     -0.32845611
H       0.74561565      2.04649606      0.18506316
H       2.39483087      1.71595714      0.70872371
H       2.01820604      1.74650813     -1.00189576
