14
b3lypvtz=-201273.89957451
C       3.09750696      0.33520676      0.05640943
C       1.80628574      0.64003824     -0.10010962
C       0.73798758     -0.30936183      0.12459359
N      -0.49522753      0.00407964     -0.03383728
C      -1.46186914     -0.96109970      0.18142976
N      -2.72323009     -0.72645349      0.08881413
N      -3.12876667      0.53751313     -0.14921742
H       3.87842700      1.06231528     -0.11655083
H       3.40979808     -0.65576376      0.36376129
H       1.50069357      1.63340969     -0.40747818
H       1.03174532     -1.31856947      0.44161299
H      -1.17236538     -1.97968319      0.43398781
H      -4.04441486      0.57047852     -0.56355360
H      -2.43657059      1.16799016     -0.53886207
