13
b3lypvtz=-190445.44432363
N       3.99175511     -0.61237440     -0.07018727
C       2.95492944     -0.12683199     -0.21389515
C       1.69055777      0.49567577     -0.39720218
C       0.52980405     -0.15180057     -0.23243695
C      -0.78794256      0.46096171     -0.40630019
C      -1.94483319     -0.07285477      0.37317612
N      -1.86773948     -0.31099144     -1.06214934
H       1.70929772      1.54196383     -0.67851966
H       0.54614357     -1.20202812      0.04388145
H      -0.79043051      1.51227566     -0.66805639
H      -2.72002683      0.61506799      0.68611320
H      -1.75560014     -0.89160259      1.05760608
H      -1.55591497     -1.25746107     -1.25862974
