14
b3lypvtz=-203693.78890057
C      -2.57341089     -0.40989964     -0.00001001
C      -1.11365361     -0.07594998     -0.00002808
N      -0.71718746      1.17074325      0.00006192
O       0.68469595      1.12242718     -0.00009545
C       1.08388481     -0.16179453      0.00000955
C       2.54767322     -0.41326307      0.00000583
C      -0.00628324     -0.97078585      0.00002245
H      -3.06573742      0.00435925      0.88004245
H      -3.06585243      0.00479163     -0.87979276
H      -2.72102399     -1.48846896     -0.00026111
H       3.01763853      0.02833035      0.88057779
H       3.01763359      0.02827907     -0.88059436
H       2.74588447     -1.48312443      0.00004177
H      -0.02700454     -2.04625027      0.00006202
