13
b3lypvtz=-192848.47337374
C       1.43371913      0.72276502      0.12422636
C       0.32610962      1.42697091     -0.17993635
C      -0.96814127      0.75715975     -0.32069739
O      -1.43921534     -0.00000036      0.79943966
C      -0.96814098     -0.75716038     -0.32069735
C       0.32611018     -1.42697100     -0.17993635
C       1.43371941     -0.72276468      0.12422636
H       2.37775066      1.23410528      0.26358948
H       0.37570025      2.49430793     -0.35323651
H      -1.75925524      1.27904930     -0.84881245
H      -1.75925478     -1.27905020     -0.84881239
H       0.37570123     -2.49430800     -0.35323652
H       2.37775114     -1.23410457      0.26358947
