14
b3lypvtz=-222173.8016668
C       0.59547301     -1.34133257      0.46353680
N       0.28234190      0.06983528      0.26077861
C      -1.01571653      0.63696360      0.39326109
N      -1.27843387      1.86427768      0.57015098
N      -2.03128702     -0.31056661      0.35559020
N       1.26693331      0.94923269      0.02255205
N       2.40594272      0.44130574     -0.06670980
H       1.42883409     -1.42114767      1.16075110
H      -0.27724313     -1.83737301      0.87175348
H       0.90564206     -1.81253269     -0.47104404
H      -0.42763449      2.40698169      0.67549184
H      -2.93339563      0.14152125      0.36522082
H      -1.95665680     -1.01253012     -0.36559751
H       3.03520037      1.22536476     -0.24829420
