14
b3lypvtz=-226996.75963881
N      -2.72938312     -0.13403569      0.66646651
C      -2.12973275      0.62971974     -0.13509421
O      -0.88292194      0.54510102     -0.66999816
C      -0.06689493     -0.57179296     -0.29987225
C       1.26639114     -0.43742887     -1.02205819
C       2.09098155      0.74305325     -0.55963263
O       3.27495327      0.68901279     -0.34832370
H      -2.18306990     -0.94182495      0.95626277
H      -2.61260458      1.52599517     -0.51427060
H      -0.56078589     -1.50282666     -0.59061538
H       0.07120450     -0.58385423      0.78584860
H       1.06832614     -0.30877508     -2.09155161
H       1.86023319     -1.34347108     -0.89731873
H       1.53350332      1.69122756     -0.42984243
