15
b3lypvtz=-216917.12755128
C      -2.53788461     -0.61173870     -0.13546342
C      -1.04580510     -0.75948699      0.13124489
C      -0.29022787      0.55020700      0.07496666
O      -0.83089153      1.62643294     -0.05147228
C       1.20892273      0.50645886      0.20158567
C       2.03152231     -0.28998666     -0.72647218
O       1.82523827     -0.71725175      0.61367430
H      -3.03664712     -1.57806110     -0.05923080
H      -2.99670236      0.07056603      0.57884396
H      -2.72185710     -0.20858390     -1.13122556
H      -0.58118221     -1.46445827     -0.56443165
H      -0.85532902     -1.19098275      1.11958452
H       1.63768657      1.41288031      0.61666366
H       3.03178874      0.05787750     -0.96134691
H       1.55106428     -0.89264650     -1.49023887
