15
b3lypvtz=-214533.42539764
C       2.74634321     -0.60917013      0.05216387
C       1.50444748     -0.94812135     -0.26557920
C       0.27943149     -0.26971820      0.27143523
N      -0.53477384      0.24773345     -0.81455206
C      -1.82750652      0.66264958     -0.63114658
N      -2.61270491      0.51102253      0.35835849
O      -2.26717878      1.30799817     -1.74417857
H       2.95498855      0.20920076      0.73126465
H       3.59897938     -1.14016301     -0.34934374
H       1.32228166     -1.76746151     -0.95384814
H       0.56368486      0.51283574      0.98525544
H      -0.32174648     -1.00261291      0.81791013
H      -0.04748308      0.69186608     -1.57616664
H      -2.17845732      0.03729555      1.14099180
H      -3.18050571      1.55664524     -1.55096468
