15
b3lypvtz=-214525.47510989
C      -1.47849842      1.47777939     -0.29926990
C      -1.40039262      0.01862904     -0.00663774
O      -2.62366349     -0.49389516      0.31183784
C      -0.29850495     -0.74124837     -0.04711234
N       0.97718364     -0.23860325     -0.41614010
C       2.04498797     -0.21714585      0.45726630
N       3.27907351     -0.04225555      0.20527513
H      -1.92215527      2.00014216      0.55045037
H      -0.49286000      1.88704629     -0.49937456
H      -2.12581073      1.65491086     -1.16079472
H      -2.54127420     -1.43707135      0.49742351
H      -0.37204581     -1.79981718      0.19937256
H       1.21445485     -0.24138159     -1.39802251
H       1.73485700     -0.34765686      1.49388429
H       3.45035252      0.06721342     -0.79633013
