17
b3lypvtz=-191976.81047434
C       1.54828594      1.64897839     -0.18140098
C       0.63480306      0.41667739     -0.26438194
C       1.32075546     -0.77100190      0.36887325
N       1.66351325     -1.86360972     -0.16884994
C      -0.72377304      0.70338034      0.41842998
C      -1.74742637     -0.38134252      0.21257720
N      -2.89785885     -0.26908864     -0.30441890
H       1.07327413      2.51295235     -0.64832613
H       1.76418953      1.90697088      0.85772987
H       2.49738100      1.46805953     -0.68660420
H       0.45181520      0.18165331     -1.31739919
H       1.55750985     -0.64704632      1.43148874
H       1.39933444     -1.88336101     -1.15727294
H      -1.12160728      1.65169966      0.04828450
H      -0.55251467      0.82632225      1.49467713
H      -1.45524012     -1.37867523      0.55063295
H      -3.07735351      0.69813025     -0.58748641
