14
b3lypvtz=-226985.16702251
C       0.29215830      1.93154625      0.39619839
O      -0.02656519      0.90447357     -0.55696193
C      -0.03115710     -0.37896056     -0.03253514
C       1.23148843     -1.07345338      0.17390731
N       2.39736052     -0.67645868     -0.15204609
C      -1.22354425     -0.96341909      0.17176267
O      -2.40550596     -0.37045449     -0.07977564
H      -0.46076038      1.97384470      1.18720843
H       0.29908122      2.86975511     -0.15401636
H       1.27233731      1.76365516      0.84501373
H       1.14282511     -2.04770239      0.65929380
H       2.34174712      0.23031139     -0.62079109
H      -1.31645327     -1.97648016      0.53562186
H      -2.21457285      0.48818357     -0.48726195
