17
b3lypvtz=-191965.66856672
C      -1.81113406     -1.71455311      0.01821195
C      -0.86230803     -0.91709926     -0.45346096
C       0.07569162     -0.09372039      0.39586352
C       1.45074190     -0.75317033      0.34193821
N       2.46763595     -0.35727878     -0.29484113
N       0.15658114      1.28041900     -0.08330713
C      -1.09324121      2.03061617     -0.00611034
H      -2.42490786     -2.31389715     -0.64096757
H      -2.00842981     -1.79858067      1.08049099
H      -0.68275689     -0.84630131     -1.52192349
H      -0.27235078     -0.15985416      1.44132348
H       1.52365722     -1.68247351      0.91023709
H       2.24780770      0.50314541     -0.80417285
H       0.87251982      1.76635016      0.44409855
H      -1.82530346      1.60865325     -0.69390394
H      -0.90757996      3.06144397     -0.30675007
H      -1.54468129      2.03834371      0.99720769
