11
b3lypvtz=-236301.67197489
C       1.88306775     -0.14973748     -0.53043364
N       0.76098815     -0.74834561     -0.53221084
N      -0.36266199     -0.15233454      0.01866613
C      -0.45668441      1.10222422      0.61925481
O       0.43997366      1.89331013      0.76327416
C      -1.53989690     -0.93529925     -0.05299425
O      -1.61465264     -2.02408668     -0.53611335
H       2.07680582      0.83286968     -0.12356299
H       2.69098672     -0.71054682     -0.98789682
H      -1.48477405      1.29951253      0.96246004
H      -2.39305211     -0.40756619      0.39955674
