12
b3lypvtz=-247137.87337215
C       1.81479671      0.43486779     -0.39653064
O       2.31209668     -0.56511735     -0.87030652
N       0.49997471      0.61003653     -0.07063273
C      -0.54757379     -0.30967875     -0.18656306
N      -1.69443278     -0.10112858      0.35874203
O      -1.69003412      1.15643020      1.04532481
N      -0.33534874     -1.41638806     -0.96403577
H       2.40729243      1.33610856     -0.17173988
H       0.23309596      1.46593563      0.39324929
H      -2.60580413      1.23318828      1.32349421
H      -1.02268353     -2.14253346     -0.84897140
H       0.62862059     -1.70172080     -1.06043114
