11
b3lypvtz=-264627.69658891
N       0.55030411     -1.68990770      0.00001121
C       0.96757006     -0.39490926      0.00006792
O       2.13872376     -0.06783048      0.00003106
C      -0.11225662      0.63919906      0.00001816
F       0.36446388      1.89860849     -0.00003585
C      -1.43975657      0.50730197      0.00000901
O      -2.06808854     -0.70813122      0.00007378
H      -0.42198308     -1.94227168      0.00000958
H       1.25985149     -2.40151160     -0.00003096
H      -2.06483394      1.39094385     -0.00005350
H      -3.01987156     -0.58113645      0.00003659
