11
b3lypvtz=-238691.55246131
C      -0.72075942     -1.13371853      0.07962098
C       0.12091762      0.10028964     -0.20878918
C       1.52122150      0.44038201      0.02922077
O       0.98532002      0.30218013     -1.29538844
C      -1.14098809      0.89481928      0.08611894
O      -1.51118568      2.01976489      0.09573071
O      -1.84791907     -0.24728601      0.40528570
H      -0.44278169     -1.73771104      0.94038955
H      -0.94776649     -1.74997428     -0.78777703
H       1.77633064      1.45307885      0.32041946
H       2.20761067     -0.34182493      0.33516854
