17
b3lypvtz=-217678.36565701
C       2.99430443     -0.28297500     -0.83156650
C       1.72147586      0.08772073     -0.89159829
C       0.99089772      0.83035429      0.18798379
C      -0.26042897      0.11426617      0.68359171
O      -1.19787345      0.03950668     -0.39091820
C      -2.36847868     -0.66796429     -0.08945821
O      -3.19690509     -0.01540999      0.84538294
H       3.61239440     -0.06189044      0.03147691
H       3.46832393     -0.81793618     -1.64412881
H       1.13683919     -0.15329666     -1.77325722
H       0.68345695      1.81349722     -0.18363566
H       1.65339516      1.00084520      1.04003057
H      -0.01454877     -0.89952067      1.02424218
H      -0.69941827      0.65709866      1.52481642
H      -2.13705341     -1.63850672      0.36009691
H      -2.87560730     -0.80935246     -1.04675981
H      -3.51087370      0.80356345      0.44680127
