15
b3lypvtz=-193634.7213088
C      -2.54983020      0.26344345     -0.53561236
C      -1.63223373     -0.34933471      0.53092773
C      -0.17264247     -0.15140245      0.25273412
C       0.74579212     -1.10421213     -0.04933396
O       1.97805677     -0.55392245     -0.24980327
C       1.83660749      0.78645611     -0.06977819
C       0.55323161      1.09048266      0.23625079
H      -3.59955420      0.10507998     -0.28256550
H      -2.38656427      1.33835134     -0.62742888
H      -2.36400525     -0.18382140     -1.51307842
H      -1.83722249     -1.41886225      0.61550298
H      -1.87712959      0.08523158      1.50463069
H       0.68500285     -2.17335502     -0.15183319
H       2.72802567      1.37575479     -0.18995556
H       0.16222269      2.07491449      0.43270901
