13
b3lypvtz=-213752.05806184
C      -2.78122450     -0.19536972     -0.54515237
N      -2.17302281      0.06554820      0.53330122
C      -0.81707864      0.37590642      0.50463321
N       0.03733423     -0.34698600     -0.10005850
C       1.39430832     -0.00188879     -0.07057823
C       1.90399504      1.21568820     -0.27570928
O       2.20134099     -1.08277988      0.11804259
H      -2.30419276     -0.12493866     -1.52557515
H      -3.82329793     -0.50060178     -0.50372034
H      -0.54493228      1.24385257      1.10662280
H       1.25816021      2.05986674     -0.45356656
H       2.97243962      1.36126048     -0.30761798
H       1.63241452     -1.86137179      0.14162958
