18
b3lypvtz=-202803.22547857
N       2.99100401      0.02688767      1.12164525
C       1.99536490      0.58054605      1.66600706
C       0.69794270      0.97989813      0.98640825
N       0.60654241      0.48817101     -0.37686008
C      -0.01825637     -0.82413232     -0.53024579
C      -1.54983933     -0.80126498     -0.50432437
N      -2.04868607      0.06081635     -1.58173622
H       2.78018624     -0.10624783      0.12619475
H       2.04893955      0.81418730      2.73314419
H       0.65299638      2.07386356      0.98123488
H      -0.13542918      0.65854431      1.63180975
H       0.11142215      1.14572432     -0.96491335
H       0.30829602     -1.25357700     -1.48350071
H       0.35691180     -1.48902498      0.25033127
H      -1.92417822     -1.83355644     -0.55099356
H      -1.89547243     -0.38251559      0.44377697
H      -1.94302662     -0.39507040     -2.48112679
H      -3.03481794      0.25675085     -1.46685149
