16
b3lypvtz=-181132.22473475
C       1.62970546      0.52689266      0.55918899
C       1.12079641     -0.16879096     -0.64462628
C       0.01701626     -1.20317167     -0.63240359
C      -1.14573783     -0.85836585      0.31133438
C      -1.45198330      0.61337135      0.29505273
C      -0.53799382      1.52878011     -0.01821527
N       0.79732198      1.25117114     -0.42989468
H       2.66580746      0.83877952      0.60948561
H       1.16860815      0.31074106      1.51558393
H       1.82971557     -0.30046561     -1.45623651
H      -0.37148145     -1.27221673     -1.65221399
H       0.43131082     -2.18551698     -0.39300689
H      -2.02927920     -1.43468398      0.02832878
H      -0.90726198     -1.17285317      1.33307737
H      -2.44846735      0.93905482      0.56681384
H      -0.76807720      2.58727428      0.00763157
