18
b3lypvtz=-181910.86355895
C       2.77405951     -0.29210706      0.07487462
C       1.60367956      0.64075424     -0.01646722
C       0.32325317      0.28990625     -0.06861562
C      -0.85703760      1.23834467     -0.15630617
C      -2.03218442      0.36710468      0.29563180
N      -1.67067611     -0.94019419     -0.25901309
C      -0.23439591     -1.12190129     -0.00985499
H       2.46997863     -1.33808316      0.09941084
H       3.45006843     -0.16097699     -0.77529718
H       3.36527539     -0.09550173      0.97423905
H       1.84500706      1.70000546     -0.04177506
H      -1.01399301      1.54999618     -1.19260393
H      -0.72628234      2.13459142      0.44952244
H      -2.99266873      0.70095001     -0.09859454
H      -2.09606680      0.37009836      1.39558773
H      -2.22538564     -1.69342361      0.12452043
H       0.20370973     -1.78199400     -0.76200828
H      -0.02035493     -1.56354223      0.97679717
