15
b3lypvtz=-216951.6754054
O      -1.63090355      2.36841596     -0.08317464
C      -0.89158878      1.42426620     -0.01943204
C      -1.40132909     -0.00819156     -0.00979226
C      -0.36828819     -1.08270286     -0.34856927
C       0.93055252     -0.77526535      0.38852954
C       1.42444672      0.59815188     -0.02127274
O       0.43844455      1.64340061      0.12945108
H      -2.26853451     -0.03851660     -0.66754645
H      -1.78218730     -0.16728952      1.00423623
H      -0.18018306     -1.09637135     -1.42621081
H      -0.75270313     -2.06892088     -0.08444403
H       0.76756565     -0.80642025      1.46964584
H       1.70677581     -1.50774863      0.15706352
H       2.27069336      0.92418629      0.58114916
H       1.73713900      0.59300605     -1.06963312
