16
b3lypvtz=-204458.9273981
C       0.54789606     -1.43821481     -0.58123449
C       0.52260767      0.08045811     -0.33926574
C       1.25345142      0.45789206      0.96032618
C      -0.88867956      0.63387985     -0.37187186
N      -1.34803818      1.48420505     -1.20127774
C      -1.91439385      0.18826947      0.64285835
O      -1.71617290     -0.60728874      1.52650599
H       0.04999859     -1.70052309     -1.51608477
H       1.58123275     -1.78277562     -0.64494754
H       0.05954881     -1.97313937      0.23128490
H       1.04708366      0.56166008     -1.17125321
H       1.25489016      1.53779364      1.11666489
H       2.29168380      0.12639745      0.90758619
H       0.78790799     -0.01468904      1.82325144
H      -0.63455563      1.76907302     -1.87554711
H      -2.89446078      0.67700197      0.49300452
