16
b3lypvtz=-204450.37949543
C      -2.86508353     -0.62794285      0.00004597
N      -1.69955578      0.24634719     -0.00000308
C      -0.55405777     -0.30786860     -0.00007477
C       0.67584979      0.47538892     -0.00002556
C       0.57685324      1.97465795      0.00001728
C       1.87384956     -0.12869196      0.00001657
O       2.02749645     -1.48619871     -0.00002435
H      -2.88656665     -1.27305004     -0.88466947
H      -3.77313796     -0.02686410      0.00004340
H      -2.88652650     -1.27297337      0.88481891
H      -0.43537725     -1.39749094     -0.00002759
H       0.02559573      2.32677633      0.87347844
H       0.02570976      2.32683262     -0.87349372
H       1.56419308      2.43759605      0.00009358
H       2.79163398      0.44923366      0.00008306
H       2.96236586     -1.70443015      0.00001035
