17
b3lypvtz=-171057.19984688
C      -3.21862475      0.88505568     -0.26385928
C      -2.25503599      0.30495584      0.43694113
C      -1.51808963     -0.94201369      0.01158476
C      -0.06594514     -0.76509278     -0.01441715
C       1.12601847     -0.60906347     -0.02404351
C       2.57085913     -0.39676018     -0.04170877
C       2.96545987      1.08793729     -0.03833120
H      -3.53901915      0.49509182     -1.22306584
H      -3.72207414      1.77316770      0.09450212
H      -1.94860336      0.72642580      1.38880547
H      -1.75973726     -1.75553642      0.70605666
H      -1.87410518     -1.26069831     -0.97181873
H       3.01868843     -0.89610299      0.82253731
H       2.99326818     -0.88488249     -0.92495906
H       4.05122744      1.19324606     -0.05157572
H       2.58284002      1.58853301      0.85118769
H       2.55981904      1.59869914     -0.91155888
