17
b3lypvtz=-243582.27496178
C      -2.89145923     -0.49577763      0.09176592
O      -1.72375591      0.11878625     -0.40502997
C      -0.56545075     -0.23907278      0.31437741
C       0.64505673      0.47004794     -0.27801096
N       0.60277301      1.90091442      0.02005952
C       1.94230209     -0.17214628      0.21171264
F       2.03996085     -1.50454512     -0.19831106
H      -2.82487862     -1.59069567      0.04668723
H      -3.72137751     -0.16638181     -0.53089918
H      -3.09056364     -0.20465196      1.13139282
H      -0.67042552      0.03771949      1.37641916
H      -0.40821419     -1.32409052      0.27022322
H       0.59376961      0.35320645     -1.36307577
H       1.34540423      2.39986003     -0.45428192
H       0.70380300      2.07146767      1.01463071
H       2.00031182     -0.15751075      1.30483300
H       2.80377001      0.36197226     -0.19455476
