16
b3lypvtz=-202061.91891862
C      -1.88288801     -0.60294030     -0.44724308
C      -0.88747302     -0.18446188      0.63159031
N       0.45202912      0.09517873      0.10750475
C       1.41426916     -0.90171029      0.10779310
N       2.57308588     -0.76181487     -0.39381090
C       0.73418449      1.34610330     -0.41784171
N      -0.14893180      2.26074252     -0.46038888
H      -1.55800925     -1.51266176     -0.95508874
H      -1.99573560      0.18825167     -1.18653763
H      -2.85996382     -0.79456558     -0.00017983
H      -1.23527066      0.72000377      1.12688862
H      -0.78748239     -0.96562700      1.38649573
H       1.05337891     -1.81112268      0.59388838
H       3.12058776     -1.60624253     -0.26787047
H       1.76252108      1.42310994     -0.76223699
H       0.24569816      3.10775695     -0.85785818
