16
b3lypvtz=-202066.23421969
C      -0.61221614      1.69027582      0.27121286
C      -0.22441381      0.24987965      0.05356901
C      -1.15574190     -0.70739727     -0.12720837
N      -2.52352957     -0.53284674     -0.07999435
C       1.21130410     -0.08950148     -0.03292155
N       2.15866487      0.71901779     -0.33791525
N       1.54299373     -1.42693307      0.19279342
H       0.17534769      2.23192996      0.79423854
H      -0.80581802      2.22186795     -0.66678803
H      -1.51359597      1.76966643      0.88335946
H      -0.84553950     -1.72653189     -0.31497603
H      -2.88132928      0.39893197     -0.20825103
H      -3.08211874     -1.23915509     -0.52682018
H       1.79435750      1.63286262     -0.58924730
H       2.54376670     -1.56125272      0.20182519
H       1.08435633     -1.85403996      0.98286660
