17
b3lypvtz=-194359.59271164
C      -2.86634372      0.52099456     -0.29523525
C      -2.01029140     -0.27910499      0.32818484
C      -0.74925270     -0.83289011     -0.26659956
C       0.50584644     -0.38752952      0.48328069
C       0.96712131      1.07077851      0.28385146
O       2.22138358      0.64286005     -0.29887945
C       1.86449687     -0.74978654     -0.15133199
H      -2.71047995      0.82915522     -1.32269802
H      -3.75723173      0.89147678      0.19477580
H      -2.21094805     -0.56137670      1.35891506
H      -0.79044150     -1.92837928     -0.24812306
H      -0.67269717     -0.53722451     -1.31649325
H       0.43359182     -0.67416181      1.53277546
H       1.12292106      1.65539369      1.19356525
H       0.36949793      1.65635363     -0.42011614
H       1.80717510     -1.25927811     -1.11815908
H       2.56828410     -1.28305388      0.49288525
