13
b3lypvtz=-211370.50304481
N       3.52720942     -0.16325724      0.00004142
C       2.37054324      0.34945005     -0.00011182
N       1.17186679     -0.37156183     -0.00007642
C       0.09059345      0.30626772     -0.00005537
N      -1.13183063     -0.29963514      0.00000381
C      -2.35020038      0.36894787      0.00000877
N      -3.51104175     -0.13245264      0.00003361
H       3.44984456     -1.18257142     -0.00001372
H       2.28889031      1.44294499      0.00014344
H       0.05243967      1.39948290     -0.00015165
H      -1.12665814     -1.31111961      0.00002419
H      -2.23784826      1.45181602      0.00000110
H      -3.50009529     -1.15327567      0.00004463
