16
b3lypvtz=-181139.05971226
C       1.90475824     -0.46526761      0.10807792
C       0.45429558     -0.07261684      0.20203019
C       0.05065734      1.35364785      0.49058392
C      -0.30861179      0.72769467     -0.84765596
C      -1.64760191      0.07873687     -0.91977070
C      -1.69189727     -0.91337106     -0.02216718
N      -0.45641661     -1.13386068      0.59709815
H       2.50394299      0.35352181     -0.29155389
H       2.02851159     -1.33509145     -0.53897580
H       2.30799009     -0.71694997      1.09319736
H      -0.75586451      1.54978329      1.18499051
H       0.84962936      2.08257816      0.49236430
H       0.17895299      1.09747969     -1.74002903
H      -2.43513692      0.35326004     -1.60210858
H      -2.52562357     -1.55373228      0.22485923
H      -0.45758563     -1.40581250      1.56905956
