15
b3lypvtz=-193576.85992778
C      -2.80588100     -0.19610528      0.02597883
C      -1.61220324     -0.15353643      0.12556895
C      -0.15670621     -0.05855632      0.25095625
C       0.36395170      1.17866281     -0.44398761
C       1.03733568      2.14482398      0.16386573
O       0.40675099     -1.24944321     -0.30309502
C       1.75480982     -1.46937486      0.07581540
H      -3.86256363     -0.24349206     -0.06137834
H       0.09767412      0.00185252      1.31881928
H       0.15579448      1.22520172     -1.50725803
H       1.39476488      3.01259960     -0.37457424
H       1.24670762      2.10928990      1.22680737
H       2.41830180     -0.67194231     -0.27256121
H       1.85199750     -1.55709716      1.16494920
H       2.05547750     -2.40893290     -0.38303456
