13
b3lypvtz=-239412.70804171
C      -1.10273511     -0.47988319     -0.15044892
C       0.15808555     -0.18808914      0.69871915
C       1.03723261     -0.49674573     -0.53730068
C      -0.14470822      0.38853398     -1.00121986
O       0.08277484      1.23532649      0.22022837
O       2.32275498      0.02918283     -0.58799576
O      -2.31633410      0.06583446      0.25089336
H      -1.27063222     -1.50732993     -0.46916472
H       0.34826205     -0.34500190      1.75778886
H       1.06723597     -1.52582517     -0.89158996
H      -0.31056639      0.90971122     -1.94104649
H       2.25933921      0.93985322     -0.26802857
H      -2.13070916      0.97443287      0.52609900
