17
b3lypvtz=-191942.62207648
N       2.24952201      0.87969881     -0.77340771
C       1.62958548     -0.34747965     -0.25243642
C       0.31418022     -0.05653170      0.42635481
C      -0.86450491      0.24942027     -0.45649385
C      -2.08702747      0.57785721      0.39495410
N      -1.98428457     -0.75648397      1.06887447
C      -0.78627969     -1.07377165      0.28780559
H       2.44551562      1.52052297     -0.01220373
H       3.14224603      0.66578481     -1.20340104
H       1.45351587     -1.01229941     -1.10267493
H       2.27283668     -0.89838595      0.44875376
H       0.39440307      0.47125450      1.37605686
H      -0.74098850      0.45729218     -1.50823635
H      -3.01656141      0.65678760     -0.16995738
H      -1.99304454      1.44968219      1.04960807
H      -1.81761495     -0.70672044      2.06942671
H      -0.61149894     -2.07662778     -0.08122299
