17
b3lypvtz=-194349.07848293
C       2.43081991      0.24388283      0.12346484
O       1.23589850      0.06223963      0.87177028
C       0.09256782      0.04586730      0.09368436
C      -0.42922860     -1.18846441     -0.64945622
C      -1.87950048     -0.77463137     -0.23326701
C      -1.30704719      0.42669103      0.52381646
C      -0.52984547      1.30605151     -0.43174940
H       3.25177814      0.26379152      0.83746775
H       2.59259512     -0.57783309     -0.58219592
H       2.41106421      1.18686274     -0.43253882
H      -0.11825099     -2.11182122     -0.16287382
H      -0.21156336     -1.25280311     -1.71724390
H      -2.35074541     -1.51138483      0.41460357
H      -2.56326543     -0.53245890     -1.04884040
H      -1.64817422      0.80004640      1.47859240
H      -0.84064090      1.40352215     -1.46746311
H      -0.13646164      2.21044183      0.01370244
