15
b3lypvtz=-193560.29075974826
C      -1.45041685     -0.48140742      0.15813078
C      -0.09427609     -1.05165958      0.63155060
C       0.87271537     -1.05865153     -0.50599617
C       0.55070891      0.23208985      0.21300183
C       1.96623684     -0.11962315     -0.04505394
C      -0.74983220      0.85605973     -0.26857050
O      -1.26490548      1.92782154      0.50367073
H      -1.94962224     -1.03131133     -0.63993166
H      -2.15132840     -0.29313334      0.96792389
H       0.05928416     -1.60612628      1.55196503
H       0.62016466     -1.19596863     -1.54771106
H       2.49500353      0.40247388     -0.83667907
H       2.59748197     -0.38586111      0.79945695
H      -0.78656155      1.10212978     -1.33611107
H      -0.71465263      2.70316759      0.35435367
