22
b3lypvtz=-183439.94480962
C      -1.64289120     -1.22202025     -0.05898757
C      -0.85593866      0.03960790     -0.43615349
C      -1.59781649      1.28625050      0.06229716
C       0.64468314     -0.02287834     -0.01019665
C       0.81919697     -0.24210672      1.49766456
C       1.37705087      1.26915040     -0.42299542
N       1.23071660     -1.19900155     -0.68818094
H      -2.61504147     -1.22063294     -0.55584770
H      -1.83089103     -1.26693846      1.01595429
H      -1.10626009     -2.12289723     -0.34881120
H      -0.83687567      0.09444693     -1.53233350
H      -1.15183013      2.21365209     -0.29538694
H      -2.63199522      1.26672603     -0.28615879
H      -1.62779082      1.32474809      1.15341822
H       1.88174044     -0.26548522      1.75245564
H       0.38250020     -1.18893291      1.81067360
H       0.36474545      0.56243428      2.07591501
H       1.04433864      2.14209263      0.14008262
H       1.22888952      1.47707833     -1.48589629
H       2.44972229      1.15672051     -0.25164546
H       1.22208488     -1.06093875     -1.69381567
H       2.20380078     -1.30289432     -0.42127049
