17
b3lypvtz=-194377.33159498
C      -2.98173302     -0.44617413      0.14320919
C      -1.71085400     -0.81059906     -0.03842085
C      -0.54724062      0.07892765     -0.09025404
C      -0.78939419      1.55286702      0.09784945
C       0.66106775     -0.46846493     -0.31314011
C       1.99409662      0.20340699     -0.40187837
O       2.95961132     -0.41992907      0.45186003
H      -3.27977769      0.58576072      0.27110888
H      -3.77252096     -1.18331158      0.16710293
H      -1.48904309     -1.86578339     -0.16515961
H      -1.32816065      1.73909828      1.02953098
H       0.13162727      2.12894308      0.11876703
H      -1.40935411      1.94776251     -0.71077451
H       0.71205097     -1.54656054     -0.43796020
H       2.40236859      0.09154717     -1.40961833
H       1.93229353      1.27503258     -0.19648043
H       2.60978627     -0.41023228      1.34872596
