16
b3lypvtz=-204456.1718534
N      -2.41258548     -1.12017556      0.31474040
C      -1.99999420      0.05751419      0.09727554
C      -0.89563553      0.50373281     -0.82096881
C       0.21033639      1.28570869     -0.08815111
C       0.98494893      0.46062049      0.93825950
C       1.92074065     -0.57095520      0.36205404
O       2.12064798     -0.74798104     -0.81293212
H      -1.88659513     -1.79516396     -0.24687754
H      -2.49965882      0.86086573      0.64905715
H      -0.46990070     -0.35509533     -1.34205783
H      -1.32992469      1.16184232     -1.58086701
H       0.90816616      1.67734704     -0.82918541
H      -0.23300356      2.14837819      0.41527470
H       1.60088920      1.10718757      1.57551486
H       0.31687042     -0.05870434      1.63557845
H       2.45221039     -1.18455759      1.11953420
