13
b3lypvtz=-216168.8030948
C       1.06626195     -0.74452284      0.25876322
C       2.12285681      0.06622126      0.01228256
O       1.70155690      1.22767634     -0.55932631
C       0.35012550      1.14225416     -0.67764459
C      -0.10411402     -0.04485879     -0.19383909
C      -1.52779039     -0.50800225     -0.10820547
O      -2.32822796      0.26454728      0.78920222
H       1.10070144     -1.72571658      0.70242236
H       3.18215843     -0.02428967      0.17144400
H      -0.14202551      1.99423819     -1.11170045
H      -1.54548535     -1.56778708      0.16918773
H      -2.02347351     -0.41917748     -1.07532085
H      -1.85254430      0.33941746      1.62273466
