17
b3lypvtz=-191976.22237874
C       1.38231627      1.52480470      0.20740904
C       0.77047821      0.16663777     -0.06821407
N      -0.60216276      0.26884342     -0.49780259
C      -1.52664398     -0.13816519      0.26688772
N      -2.85719935      0.03157064     -0.02774978
C       1.26940724     -1.02119607      0.72419593
C       1.62697682     -0.86438760     -0.74083459
H       2.44394829      1.43902062      0.44335207
H       0.88326170      2.01166896      1.04822978
H       1.27232065      2.16872129     -0.66686949
H      -1.34989598     -0.61634926      1.23576772
H      -3.51104471     -0.60874987      0.38866598
H      -3.06172299      0.30552209     -0.97627357
H       2.04292124     -0.85860404      1.46320434
H       0.57798733     -1.81209438      0.97988381
H       2.64445944     -0.60358074     -1.00076904
H       1.13674457     -1.52839332     -1.43988628
