14
b3lypvtz=-229591.89198569
C      -2.63554186     -0.79682107      0.01552696
C      -1.25599340     -0.37417313      0.40196728
C      -0.29601110     -0.03890635     -0.46358880
C       1.03936524      0.37120580     -0.09646752
N       1.94331533      0.67979404     -0.92697429
N       3.15162387      1.12760801     -0.46145808
F       1.29811612      0.40987836      1.24849919
H      -3.38547573     -0.13090022      0.45213214
H      -2.85767649     -1.79988518      0.39116331
H      -2.77074712     -0.79998865     -1.06613847
H      -1.03420229     -0.34102345      1.46292223
H      -0.47263487     -0.05467220     -1.53189805
H       3.86659615      0.95967625     -1.15139385
H       3.40926615      0.78820776      0.45847931
