20
b3lypvtz=-182661.38902374
C       1.61408131     -1.24406760      0.16925767
C       0.83429939     -0.08001249     -0.45594811
C       1.62405311      1.23055818     -0.35604347
C      -0.57794449      0.04615875      0.11660060
C      -0.70802187      0.35938331      1.59243581
C      -1.64685813      0.50990554     -0.80106668
N      -1.59618316     -0.90301964     -0.37431769
H       1.05348864     -2.17874111      0.11216546
H       1.83980838     -1.05474680      1.22018460
H       2.56423948     -1.39022295     -0.34755664
H       0.70908422     -0.30469257     -1.52181938
H       1.82905334      1.49409981      0.68317868
H       2.58531823      1.13981753     -0.86520629
H       1.07915783      2.05910323     -0.81147397
H      -1.75960246      0.36723812      1.87517921
H      -0.20857161     -0.39369902      2.20432863
H      -0.28020016      1.33385985      1.83469523
H      -1.37667716      0.74978950     -1.82333367
H      -2.48895833      1.07209892     -0.41524948
H      -1.21210356     -1.47057956     -1.12402550
