11
b3lypvtz=-267213.96715915
N       3.33422147     -0.00009396     -0.17853166
C       2.20173705      0.00010375      0.37622959
N       0.97872794      0.00005511     -0.33589195
C      -0.08754899      0.00002894      0.34682015
C      -1.42272995     -0.00002980     -0.34132026
F      -2.12813193      1.09966799      0.05633777
F      -2.12811926     -1.09968961      0.05645973
H       3.22174879     -0.00015817     -1.19497069
H       2.13831574      0.00007447      1.46866881
H      -0.11928217      0.00010587      1.44210314
H      -1.33760169     -0.00008859     -1.42711362
