17
b3lypvtz=-191952.03648816
C       1.78389450      1.51344105     -0.26804975
C       0.60012242      1.17633120      0.26058281
N      -0.07591135     -0.03345585      0.34572219
C      -1.52194258      0.00403635      0.59556678
C      -2.35271982      0.08522540     -0.68113501
N       0.35776307     -1.27920834      0.04985943
C       1.57982951     -1.57929607     -0.17138741
H       2.08015607      2.55032607     -0.20763937
H       2.45278208      0.85042899     -0.78487856
H       0.01337904      1.96884793      0.71041923
H      -1.77134476     -0.89731563      1.15202293
H      -1.72656461      0.85922772      1.24094562
H      -2.14620007     -0.77296416     -1.32082223
H      -2.12864284      0.99412306     -1.24165765
H      -3.41786448      0.08601956     -0.44198370
H       2.41857900     -0.89880732     -0.14860136
H       1.77770883     -2.62981697     -0.34408695
