20
b3lypvtz=-182671.26862702
C      -2.39636524     -0.66885784      0.29388477
N      -1.48580584     -0.20083612     -0.43994097
C      -0.32976850      0.43073461      0.19055719
C      -0.40471698      1.92941530     -0.11871203
C       0.96521492     -0.23223318     -0.33400301
C       0.96482277     -1.74236054     -0.07724664
C       2.22035373      0.40556324      0.27151334
H      -2.36220971     -0.64482899      1.39097670
H      -3.27197483     -1.12623004     -0.16286388
H      -0.36504700      0.29235271      1.28437539
H       0.39855913      2.47737282      0.37155981
H      -0.34021539      2.09964165     -1.19459618
H      -1.35292604      2.33964330      0.22981881
H       0.98040674     -0.07258486     -1.41696378
H       0.12017656     -2.23143720     -0.56007276
H       0.91269085     -1.95697142      0.99431150
H       1.88065785     -2.19671893     -0.45914996
H       2.20949745      0.33512363      1.36279683
H       2.32623193      1.45645819      0.00453715
H       3.11444161     -0.11201332     -0.07990927
