13
b3lypvtz=-218760.77963379
C       3.15179521     -0.27379621      0.00000519
C       1.92542229      0.25952121      0.00000118
C       0.71392017     -0.52226477     -0.00000371
C      -0.53083330     -0.01843830     -0.00000976
F      -0.70178397      1.33433652     -0.00001808
N      -1.65751406     -0.79283322     -0.00001588
C      -2.81724541     -0.26281531     -0.00003089
H       3.30420510     -1.34618090      0.00001177
H       4.03634585      0.34747460      0.00000287
H       1.81268335      1.33711148      0.00000158
H       0.77989650     -1.60144577     -0.00000269
H      -2.99000817      0.81253878      0.00001785
H      -3.68101757     -0.91935211      0.00000756
