12
b3lypvtz=-226171.63442959
C      -0.75581099     -0.22283692      0.72353961
C      -0.10753434      1.01539268      0.02483186
C       1.16975957      0.21161308     -0.10785543
N       2.40246837      0.38897833     -0.00032495
C       0.05389244     -0.75452876     -0.50298092
O      -0.51661249      0.39237148     -1.28520265
O      -2.13753803     -0.34153139      0.68691384
H      -0.40277760     -0.48546558      1.71904031
H      -0.28272842      2.07772452      0.15813439
H       2.92718805     -0.45357075     -0.23547561
H       0.06333352     -1.73316345     -0.97333377
H      -2.41364006     -0.09498326     -0.20728668
