11
b3lypvtz=-210590.9215445
C       2.41035650      0.32343469     -0.00000785
N       1.53961784     -0.60168329      0.00003473
N       0.22258493     -0.22230344      0.00000556
C      -0.81368975     -1.09262020     -0.00000988
N      -1.95137708     -0.43680131     -0.00002177
C      -1.54620140      0.86584599     -0.00011401
N      -0.24150286      1.05184871     -0.00002238
H       3.44529028      0.00742271      0.00007123
H       2.16153903      1.37989744     -0.00001116
H      -0.66528439     -2.15885425      0.00003375
H      -2.23441910      1.69518094      0.00006978
