11
b3lypvtz=-233883.66138083
C      -1.87617629      0.17661976     -0.09949419
N      -3.02070046     -0.35164986     -0.16319836
N      -0.65222055     -0.49084091     -0.03611402
N       0.47747365      0.19059704      0.02652591
N       1.50112477     -0.53859657      0.07925680
C       2.67059980      0.27276141      0.14452561
O       3.76667388     -0.20451437      0.20326025
H      -1.75193310      1.25559034     -0.08864905
H      -2.99114436     -1.37203765     -0.16560877
H      -0.59082962     -1.50769581     -0.03609240
H       2.46713228      1.35881325      0.13558822
