16
b3lypvtz=-202019.35725396
C       2.81647675     -0.96242850     -0.03656309
C       2.21280249      0.32043570      0.53545613
C       1.08569900      0.93784144     -0.31818934
C      -0.13792017      0.09051005     -0.39353399
N      -1.25789843      0.50099942      0.05735382
N      -2.25068771     -0.50241434     -0.13413506
N      -3.33820249     -0.11876648      0.30398140
H       2.08676291     -1.77158118     -0.09213192
H       3.20837286     -0.79890995     -1.04303386
H       3.64114953     -1.31214731      0.58588150
H       1.83349836      0.13745461      1.54374317
H       2.99763784      1.07329879      0.63644799
H       1.46186121      1.08724230     -1.33711934
H       0.80405142      1.91283036      0.07858562
H      -0.06973754     -0.90399634     -0.84050993
H      -3.99027902     -0.89375457      0.12718390
