12
b3lypvtz=-200551.44508716
N       2.64100950     -0.31170889     -0.00004488
C       1.66509298      0.49888228      0.00007997
C       0.24805460      0.14367609      0.00004262
N      -0.25302500     -1.07679170     -0.00019856
C      -1.60884165     -0.92739799      0.00006662
C      -1.94643958      0.40384464     -0.00012417
N      -0.75413219      1.07619707      0.00000877
H      -0.63565245      2.07523969      0.00016002
H       2.28896545     -1.27285380     -0.00016210
H       1.88482246      1.56957790      0.00013275
H      -2.27217253     -1.77599483      0.00027771
H      -2.89512860      0.91015654     -0.00030775
