14
b3lypvtz=-180363.68285173
C      -1.24823221      1.61520643      0.03252610
C      -0.69236852      0.39617998      0.07591330
C       0.71764925      0.19011752      0.02427342
C       1.89771378     -0.04794016     -0.01867245
C       3.32627914     -0.31406173     -0.07126639
C      -1.52295559     -0.83999469      0.21997318
N      -2.70441676     -1.03405225     -0.19368033
H      -2.31911795      1.74185420      0.11919186
H      -0.64671229      2.50625230     -0.07109916
H       3.80323664     -0.08207309      0.88357388
H       3.52260878     -1.36358964     -0.29800998
H       3.80858979      0.29230821     -0.84061250
H      -1.02632930     -1.66311518      0.73557351
H      -3.05853676     -0.21627087     -0.69546542
