12
b3lypvtz=-202921.20106865
C       3.28954992      0.54340705      0.53903355
C       2.08968345      0.46077315      0.49029368
C       0.67779710      0.35700000      0.47866939
C      -0.02634153      0.46508794     -0.65981956
N      -1.41094538      0.38126703     -0.79946839
C      -2.35157677      0.17348247      0.17727042
O      -2.12534060      0.02462526      1.35533170
H       4.34725427      0.61642352      0.58048427
H       0.16917887      0.18661084      1.41642081
H       0.48240196      0.63566643     -1.59901195
H      -1.77081743      0.48578642     -1.73385485
H      -3.37084383      0.15672034     -0.24534907
