18
b3lypvtz=-205222.07008293
C      -2.95231272      0.41149774     -0.26806941
C      -1.60469939     -0.25786690     -0.49462206
N      -0.79504471     -0.23804294      0.72254197
C       0.48896081     -0.90860854      0.59204960
C       1.57781785     -0.05306829     -0.06072742
C       1.57050516      1.42958554      0.22722253
O       2.43081893     -0.57431399     -0.74232196
H      -3.54077235      0.41736016     -1.18625831
H      -3.53138063     -0.11951739      0.49158108
H      -2.82170499      1.44083316      0.06738500
H      -1.05620860      0.27626765     -1.27579367
H      -1.75379652     -1.28217101     -0.87200143
H      -1.32172260     -0.64053765      1.48691178
H       0.44981424     -1.85481939      0.03550800
H       0.86202148     -1.14065258      1.59517255
H       0.68508246      1.89484750     -0.20844111
H       2.46955565      1.88224130     -0.18339897
H       1.50771495      1.61028862      1.30204584
