15
b3lypvtz=-212077.25841858
C       2.30800571      1.21698677      0.06382612
N       2.34317930     -0.21798943     -0.20480544
C       1.21661233     -0.97632086      0.33178502
C      -0.10652023     -0.61842220     -0.28094125
N      -1.07672588     -0.17887771      0.41712735
N      -2.19147421      0.10634888     -0.42493979
N      -3.17958423      0.39153665      0.25550272
H       1.42411167      1.74188549     -0.32246700
H       2.34144051      1.37877928      1.14279687
H       3.19608019      1.67862412     -0.36780939
H       2.45835311     -0.39736571     -1.19440342
H       1.40768869     -2.03961317      0.15707790
H       1.16172323     -0.82344979      1.41024058
H      -0.21148131     -0.71734273     -1.36640403
H      -3.92930090      0.58332342     -0.42151625
