12
b3lypvtz=-226236.90123817
C      -1.26772477      0.28741501     -0.06786687
C      -0.34906647     -0.91081497     -0.17188442
C       1.02920163     -0.36687866     -0.27299062
N       0.58807623     -1.11706577      0.91886510
C       0.89640886      1.12212905     -0.17306820
O       1.74057185      1.95841173     -0.29741420
O      -0.41020760      1.43172074      0.11523655
H      -1.84523957      0.42704986     -0.98352793
H      -1.95180603      0.23955254      0.78047985
H      -0.67799404     -1.79418170     -0.70161554
H       1.84246120     -0.78377097     -0.84707979
H       0.40531872     -0.49356685      1.70086609
