15
b3lypvtz=-193628.54054756
O       2.18061174     -1.40814628     -0.47560136
C       1.88290722     -0.31977617     -0.05867700
C       0.61178973      0.44010472     -0.37956252
C      -0.10576945      0.86470106      0.93973775
C      -1.30714395     -0.04437975      0.98106144
C      -1.47333709     -0.71621021     -0.15224585
C      -0.41402460     -0.39781090     -1.17495418
H       2.56842715      0.22304594      0.62785010
H       0.93970377      1.32750934     -0.92953617
H      -0.40480578      1.91678606      0.91546365
H       0.53980653      0.75340046      1.81671492
H      -1.95783690     -0.10441201      1.84317904
H      -2.28068789     -1.40906032     -0.34843320
H      -0.83304931      0.16588493     -2.01391058
H       0.05330883     -1.29173689     -1.59088605
