16
b3lypvtz=-202029.50977367
C      -1.85052223      0.74054462      0.47349282
C      -0.89058997      0.22703281     -0.58953052
C      -0.71651541     -1.32118062     -0.71184566
N       0.66194896     -1.17433264     -0.18383225
C       0.58830249      0.22656295     -0.24692437
N       1.44026759      1.14513785     -0.08107112
N       2.76004067      0.67752757      0.15106886
H      -1.67588124      0.24693685      1.43105248
H      -2.88765581      0.56242761      0.18205071
H      -1.71891613      1.81304748      0.61954809
H      -1.09057628      0.70697708     -1.54799959
H      -1.36147808     -1.92633172     -0.07370317
H      -0.76493542     -1.69066889     -1.73724717
H       1.45044712     -1.67113967     -0.57714830
H       2.76539823     -0.03134372      0.88389258
H       3.29066549      1.46880243      0.48915906
