12
b3lypvtz=-226227.31505204
C      -2.35977251     -1.00755399      0.43437250
C      -1.42245797     -0.40318471     -0.00774579
C      -0.30410478      0.38986501     -0.54346722
N      -0.37729780      1.82428639     -0.28250500
C       1.00215608     -0.14397167      0.05503297
O       1.57093442      0.34629997      0.99152651
O       1.42510351     -1.24773137     -0.58803140
H      -3.18606458     -1.54690486      0.82620886
H      -0.25630955      0.22412416     -1.62269012
H      -1.31813559      2.15791508     -0.45000173
H      -0.15273970      1.99586751      0.69160616
H       2.22326547     -1.55716653     -0.13334674
