15
b3lypvtz=-214491.36166175
C      -1.61131123      0.99607927      0.04735189
C      -0.64484120     -0.03183730      0.60820616
C      -0.55706788     -1.42691018     -0.09563077
N       0.90387553     -1.22778579     -0.19003622
C       0.81783881      0.09186161      0.21656592
N       1.61547933      1.07829283      0.21464984
O       2.85918020      0.67155452     -0.37147463
H      -2.64467400      0.70956309      0.25283943
H      -1.49213012      1.09982360     -1.03225269
H      -1.43422078      1.97343257      0.49656794
H      -0.76844714     -0.13226020      1.68719010
H      -1.07051245     -1.44464796     -1.05968080
H      -0.84874057     -2.29660359      0.49293981
H       1.50335851     -1.54367532     -0.93713517
H       3.37221300      1.48311284     -0.32990079
