11
b3lypvtz=-295538.24740978
C       1.55061821      1.27015547     -0.01820826
C       0.92352526      0.09423812     -0.01231655
N       1.51342917     -1.15995323      0.08129314
C      -0.58697739      0.02407715      0.00215278
F      -1.03246938     -0.85461508     -0.93383221
F      -1.05631992     -0.41210363      1.18761884
F      -1.16808270      1.20321202     -0.25195111
H       2.63056301      1.32511818     -0.01660768
H       0.99728590      2.19378143     -0.00553155
H       1.04587918     -1.89620935     -0.42525595
H       2.51019166     -1.16851010     -0.06594845
