13
b3lypvtz=-234709.24066845
N      -2.21302855     -0.95338564      0.28525056
C      -1.26541529     -0.15913058     -0.01943472
N      -1.35264299      1.21682091     -0.23282160
N       0.01569071     -0.70127368     -0.14341920
C       1.30078171     -0.17444952      0.00166585
N       1.40456598      1.17326223      0.25411638
O       2.26780222     -0.89736460     -0.13161906
H      -3.11839469     -0.49402450      0.25705650
H      -0.76363802      1.57936438     -0.96936154
H      -2.30004626      1.55472644     -0.29119899
H       0.01568973     -1.70959691     -0.15595281
H       2.33532206      1.45424497      0.51393861
H       0.64075440      1.64744951      0.70866901
