15
b3lypvtz=-219525.93400104
C       3.10306854     -0.22023660     -0.01510340
C       1.64112000     -0.25882151      0.28493291
N       0.79909278      0.43500783     -0.36137798
C      -0.57652984      0.31810887     -0.09080477
C      -1.30574200      1.60938799      0.12204008
C      -1.17064561     -0.87388140     -0.13168681
F      -2.50702493     -1.01253680      0.03962227
H       3.45738591     -1.21464437     -0.30127162
H       3.31065468      0.47985770     -0.82148490
H       3.66900532      0.06847376      0.87471579
H       1.31834630     -0.91719704      1.10189763
H      -0.95669663      2.10089675      1.03356875
H      -1.10096179      2.28717641     -0.70852507
H      -2.37858326      1.45105829      0.19996458
H      -0.68132947     -1.80785989     -0.36514846
