18
b3lypvtz=-205194.85876838
C       2.30480438     -0.93830581      0.15551280
C       1.29796953      0.05390828     -0.37497308
C      -0.14149121      0.05124845      0.17851606
C       0.11545390      1.54363570      0.45519079
O       1.51804090      1.39854699      0.13038788
N      -1.19179144     -0.26113392     -0.76878177
C      -2.53022615     -0.20594314     -0.19212416
H       2.08626849     -1.94263076     -0.21634038
H       3.31023185     -0.66954218     -0.17243313
H       2.29425546     -0.95796436      1.24601701
H       1.29463966      0.05917028     -1.47119278
H      -0.21742237     -0.52783135      1.11151103
H      -0.40035314      2.20120524     -0.25045589
H      -0.02725160      1.90240925      1.47597189
H      -1.02852887     -1.17974951     -1.16448147
H      -2.75781252      0.81921719      0.10664246
H      -3.26453782     -0.49900701     -0.94221947
H      -2.66224907     -0.84723332      0.69325220
