18
b3lypvtz=-181873.9804095061
C      -1.79127609     -1.26939374     -0.34506793
C      -1.06939531      0.05896352     -0.57147981
C       0.43299905     -0.16111175     -0.67397983
C       1.41379296      0.94084682     -0.41395171
C       1.29463704     -0.18928225      0.55012925
C       2.61050786      0.10293187     -0.09250026
N      -1.40346121      0.97332765      0.52809906
H      -1.50501043     -1.69892761      0.61560698
H      -1.54713277     -1.98375247     -1.13214609
H      -2.87472665     -1.12848772     -0.34867329
H      -1.39606805      0.45080636     -1.54709108
H       0.68785956     -0.85803417     -1.47522019
H       1.25722999      1.99167134     -0.24189410
H       1.00322197     -0.15362458      1.58378865
H       3.37015493      0.55676010      0.53401440
H       3.00380807     -0.57711757     -0.84724747
H      -2.40917668      1.03240772      0.63291945
H      -1.07796425      1.91201649      0.33087593
