17
b3lypvtz=-217691.82392799
C       2.80189026     -0.18044209     -0.31590259
C       1.38301004     -0.72563675     -0.16011711
C       0.45476029      0.23481827      0.57942854
O       0.35028943      1.41641460     -0.21968691
C      -0.94205590     -0.33925600      0.87802532
C      -1.80632067     -0.50628239     -0.34887481
O      -2.92157810     -0.06262602     -0.44793555
H       3.25940037      0.00787355      0.65814571
H       2.79753056      0.75637905     -0.87105728
H       3.43572810     -0.89036550     -0.84861822
H       1.40520420     -1.67045168      0.38943296
H       0.96385298     -0.94079515     -1.14569351
H       0.92169115      0.48140559      1.54210238
H      -0.18587706      2.06688538      0.24462668
H      -1.48169305      0.30431467      1.57593298
H      -0.83101767     -1.32057281      1.35371408
H      -1.36111393     -1.08708673     -1.18055265
