11
b3lypvtz=-233888.4634912
C       2.41292270      0.35571054      0.00000689
O       1.41580659     -0.67369657      0.00011853
C       0.15477372     -0.26467456      0.00014328
N      -0.25269492      0.99726777     -0.00021308
N      -1.57474478      0.81746730      0.00008280
H      -2.22948265      1.58286430      0.00026880
N      -1.95924672     -0.44124181     -0.00025679
N      -0.86756845     -1.15593591     -0.00010023
H       2.32076344      0.98022309     -0.88917416
H       2.32070734      0.98046704      0.88901074
H       3.36718173     -0.16198020      0.00010419
