12
b3lypvtz=-221430.46280446
C      -2.37722115     -0.47636613      0.00431287
N      -0.99092942     -0.06184528      0.00256384
N      -0.62052530      1.19830812      0.00529373
N       0.69027208      1.20468022      0.00187138
C       1.06566619     -0.09741790     -0.00571742
N       2.37672312     -0.49743811     -0.06912648
N       0.02800926     -0.92757960     -0.00250370
H      -2.58088313     -1.07994062      0.88735377
H      -2.58885234     -1.06206826     -0.88883156
H      -2.98471962      0.42331964      0.01596931
H       3.03194468      0.19613975      0.25337758
H       2.55667464     -1.42428682      0.28026268
