11
b3lypvtz=-233904.40595297
C      -0.81395642     -0.25872462      0.00682589
N       0.16791199      0.69437169      0.03378993
C       1.39193665      0.03814386     -0.00717442
N       2.52719719      0.58332059      0.05373956
O       1.08106011     -1.28732454     -0.12376453
N      -0.35389705     -1.45737497     -0.12546924
N      -2.14374325      0.05642299      0.16059783
H       0.07275241      1.64799449      0.33438742
H       3.27141133     -0.10505377      0.01287927
H      -2.45870789      0.83803157     -0.39628498
H      -2.74196508     -0.74980730      0.05047326
