12
b3lypvtz=-200527.67883727
N      -0.23963017      2.05814236     -0.69882696
C      -0.30684165      0.86884844     -0.30018058
N      -1.25167072      0.01334243      0.24102726
C      -0.40189144     -1.18263887      0.20154641
C       0.75792455     -0.25287633     -0.28813668
C       1.88000692     -0.08595496      0.61381640
N       2.76449017      0.02464939      1.34128306
H      -1.12448381      2.55550426     -0.61453332
H      -2.25487042      0.06832024      0.16026803
H      -0.69363816     -1.92970723     -0.53750022
H      -0.24583207     -1.65227890      1.17085722
H       1.11643680     -0.48535083     -1.28962063
