17
b3lypvtz=-194373.61947484
C       2.58034588     -0.17988659      0.81390039
C       1.32565959      0.24208646      0.67176882
C       0.35361754     -0.24829264     -0.32216646
C       0.31711447     -1.52374081     -0.72456847
C      -0.66246443      0.75739052     -0.81514798
C      -1.84571381      0.90813569      0.15443578
O      -2.60885934     -0.27998465      0.27557491
H       3.22944508      0.23764845      1.57157612
H       3.00256716     -0.94214521      0.17136286
H       0.97934250      1.04987938      1.31073657
H       0.98562226     -2.26909478     -0.31467540
H      -0.38211130     -1.85221536     -1.48244671
H      -1.05409254      0.44491630     -1.78402475
H      -0.19399356      1.73666202     -0.94639178
H      -2.52955925      1.66789467     -0.22483193
H      -1.49025133      1.24710571      1.13593626
H      -2.00676892     -0.99645917      0.50896176
