18
b3lypvtz=-205186.73938565
C       2.58831348     -0.42680775      0.41497312
O       1.47281013     -0.53890315     -0.44227685
C       0.77760372      0.68300643     -0.66937010
C      -0.15865620      1.09832041      0.46622904
C      -1.43823538      0.29586565      0.59261451
C      -1.58942752     -1.11716719      0.17349409
N      -2.15499348     -0.03212047     -0.64874056
H       3.30868041      0.31019068      0.03722801
H       3.06827791     -1.40368669      0.44634333
H       2.30956279     -0.14479031      1.43689545
H       1.50173819      1.48577555     -0.85687411
H       0.19629297      0.53237999     -1.57853294
H       0.37436893      1.07035914      1.42092137
H      -0.43122540      2.14669344      0.30287677
H      -2.05221363      0.59956182      1.43581862
H      -2.26843874     -1.74387400      0.74019971
H      -0.74933618     -1.63297076     -0.26983637
H      -3.15735400      0.03530423     -0.51393610
