16
b3lypvtz=-181126.21924318
C      -3.45126232      0.11037433     -0.16408146
C      -2.31001235     -0.02856608      0.18010079
C      -0.91485756     -0.18390783      0.57197792
C       0.06899598      0.30239195     -0.51865366
C       1.51137682      0.09578055     -0.13568864
C       2.32573919      1.11388418      0.16152590
N       1.88458002     -1.24827980     -0.03321455
H      -4.46343043      0.23028343     -0.45908234
H      -0.72930304      0.37624239      1.49197772
H      -0.71388754     -1.23143676      0.80561740
H      -0.14788236     -0.23465914     -1.44765527
H      -0.10579266      1.35815134     -0.71694592
H       1.96375723      2.13047880      0.15165664
H       3.36006745      0.95599492      0.43930614
H       2.87593800     -1.40657662      0.06553155
H       1.48211358     -1.85521966     -0.73219221
