13
b3lypvtz=-211358.58140648
N      -2.22301778      0.47582750      0.13977484
C      -1.29320808     -0.56642061     -0.30758995
C       0.16395964     -0.24771677     -0.14400915
C       1.15732153     -0.08815503     -1.07871643
N       2.25534787      0.21666716     -0.34695268
H       3.19346001      0.40761072     -0.65701618
N       1.97409134      0.25019781      0.96572082
N       0.71408001     -0.03053479      1.08839415
H      -2.05817212      0.66941004      1.12147636
H      -2.03424582      1.34176910     -0.35330873
H      -1.49800123     -0.78797743     -1.35655809
H      -1.52289487     -1.47464345      0.25326097
H       1.17127950     -0.16593426     -2.15087593
