12
b3lypvtz=-226265.55860437
C      -2.39969855     -0.55599305     -0.00005175
C      -1.13174197     -0.15734660      0.00002525
C      -0.59636383      1.26063469      0.00003517
O       0.83516215      1.12319209     -0.00013110
C       1.18215082     -0.19555126      0.00015107
O       2.30779556     -0.60047750     -0.00021784
N       0.01540937     -0.93492632      0.00008967
H      -3.19893889      0.16975944     -0.00015733
H      -2.67084727     -1.60188688     -0.00001128
H      -0.89521081      1.81689234     -0.88854210
H      -0.89505981      1.81680159      0.88872577
H       0.04300824     -1.93930655      0.00014747
