10
b3lypvtz=-248828.16013748
O       1.16078338     -0.18944629      0.40756713
C       2.31564626     -0.11974633      0.08236015
C       3.20325666      1.11409476      0.01021525
O       4.48037178      0.63503015     -0.43566613
C       4.43816836     -0.71139167     -0.62654608
O       5.35649011     -1.37550310     -0.99579369
N       3.14925377     -1.14308550     -0.31378957
H       2.81038208      1.83962601     -0.70174957
H       3.30464410      1.58301051      0.98869354
H       2.87780351     -2.11068855     -0.38389104
