10
b3lypvtz=-223045.63838632
N      -2.16527911      0.56299085     -1.98302076
C      -1.51409175      0.42699552     -1.04354041
C      -0.77680438      0.28596133      0.20014924
N      -1.29382113      0.53901717      1.33892908
C       0.61346535     -0.16547011      0.12652921
N       1.12201647     -0.41544549     -1.01426158
O       2.43207436     -0.82844721     -0.91891887
H      -2.26247621      0.84323728      1.25385428
H       1.15766807     -0.26877066      1.06082460
H       2.68724833     -0.98016869     -1.83644479
