16
b3lypvtz=-204439.60653828
C       2.35085680      0.05099636     -0.59636876
C       1.06673610     -0.62614882     -0.20441641
O       0.64155215     -0.53762666      1.15454655
C      -0.19141185      0.07735530      0.14190306
C      -0.29755230      1.57928198      0.18332165
C      -1.45010458     -0.69675826     -0.09370320
N      -2.58327626     -0.26618000     -0.45723943
H       3.19932188     -0.54612432     -0.25705407
H       2.44388256      1.04384479     -0.16276560
H       2.41605729      0.13444553     -1.68319972
H       0.95274363     -1.62635967     -0.62034127
H       0.64820234      2.02818798      0.47235336
H      -1.04958203      1.88582301      0.91240708
H      -0.58403762      1.98003685     -0.79117392
H      -1.34175389     -1.76925715      0.08302374
H      -2.57727423      0.74778706     -0.58167305
