15
b3lypvtz=-214525.0057579
C      -2.16531902     -1.00429759     -0.40905039
C      -1.21595307     -0.19865809      0.07959680
N      -1.39983579      1.18833726      0.30758166
N       0.06510314     -0.63202002      0.43265434
C       1.28045567     -0.05044637      0.00004329
C       2.43506231     -0.72366572      0.03306739
O       1.21596854      1.22637638     -0.42970800
H      -3.18700442     -0.66719505     -0.50173796
H      -1.93602269     -2.01331372     -0.71640216
H      -2.30139921      1.51597449     -0.00829980
H      -1.24187033      1.44686589      1.27516835
H       0.13436298     -1.63017370      0.54350791
H       2.47227284     -1.75068450      0.36081138
H       3.34711681     -0.23704079     -0.26981406
H       0.29773923      1.55036453     -0.34302774
