15
b3lypvtz=-191222.07548775
N       2.58612935     -0.36663232      0.03928157
C       1.58188471      0.61640161      0.02801044
C       0.27199544      0.32011656      0.01232647
C      -0.85982710      1.22370404     -0.00202577
C      -2.00377544      0.52989629     -0.01609300
C      -1.71394842     -0.94734663      0.00101878
N      -0.23924703     -1.00821960     -0.05637342
H       3.48307103     -0.02892214     -0.27498367
H       2.32458831     -1.19359146     -0.48429646
H       1.90625058      1.64398271      0.10296527
H      -0.76326795      2.29933735     -0.02224643
H      -3.00316656      0.93641150     -0.05246823
H      -2.10600051     -1.43411548      0.90350096
H      -2.16407184     -1.46631610     -0.85464392
H       0.16780944     -1.62768332      0.63031442
