15
b3lypvtz=-214492.75391074878
C       3.18400888      0.53672938     -0.45603637
N       1.87311646      0.55440730     -0.25185761
C       0.99275835     -0.39042211      0.10812048
N      -0.29922500     -0.01124873      0.22470274
C      -1.25041523     -0.80382000      0.55937648
C      -2.65331608     -0.28223555      0.65962487
O      -2.74673840      1.09013212      0.35694795
H       3.72927443     -0.38242008     -0.32891943
H       3.66521382      1.45211938     -0.74528580
H       1.41235044      1.44970432     -0.38638276
H       1.35969101     -1.39507179      0.28381328
H      -1.08709974     -1.86198063      0.77939038
H      -3.03539385     -0.46733387      1.67460775
H      -3.30133324     -0.85859564     -0.01744134
H      -1.84289184      1.37003589      0.15026240
