17
b3lypvtz=-215284.29286137
N       2.18417580     -0.43325170     -0.98578554
C       1.60378245      0.50473531     -0.37152831
C       0.62408140      0.35516555      0.78275155
O       0.42808807     -1.00212972      1.12628043
C      -0.69648457      1.09360520      0.49241327
C      -1.49687818      0.51387176     -0.67553584
N      -1.92388409     -0.87004436     -0.38305267
H       1.88975953     -1.32304875     -0.56900089
H       1.81739537      1.53517856     -0.67312791
H       1.08871066      0.84079949      1.65014828
H      -0.34920114     -1.30912193      0.61932660
H      -0.47724036      2.14398040      0.28313024
H      -1.30679551      1.07666666      1.39969353
H      -0.86961955      0.47777157     -1.56788955
H      -2.33977173      1.17609605     -0.90439247
H      -2.24716892     -1.33465628     -1.22251284
H      -2.69515021     -0.87515379      0.27502311
