18
b3lypvtz=-181909.37174303
C      -2.33137879      0.00877207      0.75652038
C      -1.64034983     -0.02588173     -0.61321051
N      -0.18623080      0.00023365     -0.59848719
C       0.49774016      1.14259572     -0.18174922
C       1.71789626      0.88918962      0.29996130
C       1.97387450     -0.60011835      0.19713663
C       0.55053407     -1.14994719     -0.04539425
H      -3.41566377      0.00837177      0.62928933
H      -2.05619837      0.90631610      1.31245093
H      -2.07076456     -0.85696549      1.36629470
H      -1.94996449     -0.92088021     -1.15840743
H      -1.97656853      0.82621626     -1.20908403
H       0.03188336      2.10848554     -0.32045200
H       2.45371396      1.62652788      0.57598618
H       2.63017373     -0.82405008     -0.65227168
H       2.43576776     -1.03904289      1.08239857
H       0.10749475     -1.46727659      0.90788555
H       0.52134559     -1.99675108     -0.73163427
