13
b3lypvtz=-211350.0103236
N      -2.98816092      0.89019854     -0.00488330
C      -2.57275333     -0.31081747     -0.00493972
C      -1.17107910     -0.77184362      0.00150781
N      -0.21110764      0.07184464      0.00517669
N       1.04886018     -0.48900301      0.01375649
C       1.96464189      0.41667674      0.01226329
N       3.27405578      0.09937353     -0.00306574
H      -2.18491463      1.52522386      0.00025636
H      -3.31947735     -1.10660119     -0.01004038
H      -0.97241708     -1.84381048      0.00298446
H       1.72193446      1.47797557      0.01065193
H       3.54704227     -0.86681905      0.05535082
H       3.97545947      0.80745693      0.09807929
