15
b3lypvtz=-212113.70692359
C      -3.16452659     -0.27900197      0.04671745
C      -1.93248462      0.22757693      0.11521126
N      -0.76626346     -0.46168558     -0.17198604
C       0.52305288      0.02167455     -0.05518750
N       0.68751873      1.38920491     -0.04361689
N       1.46763750     -0.84900204      0.05851169
N       2.77298694     -0.21598715      0.06146885
H      -4.01453051      0.33240487      0.30478892
H      -3.35326234     -1.30113477     -0.25489292
H      -1.77565371      1.25143617      0.42688390
H      -0.80502472     -1.46701997     -0.24127044
H       1.67099971      1.60889251     -0.16034643
H       0.07465436      1.90750434     -0.65381139
H       3.36849919     -0.83233367     -0.48157537
H       3.12511364     -0.28952414      1.01326693
