14
b3lypvtz=-203694.70483222
C      -1.16303567      0.38833568      1.19486854
C      -1.08047119      0.10445104     -0.11495053
N      -2.19777279     -0.11348838     -0.93012578
C       0.19104435      0.11457936     -0.84696663
C       1.40361698     -0.16683439     -0.35201365
C       2.59520233     -0.09499385     -1.19945560
O       3.72169761     -0.32219574     -0.81842298
H      -2.11083029      0.37684074      1.71616368
H      -0.29119338      0.68817829      1.75360532
H      -3.06177962     -0.25064529     -0.42807742
H      -2.07375994     -0.81451131     -1.64529912
H       0.11531473      0.36647093     -1.90259149
H       1.55362155     -0.46394257      0.67867671
H       2.39844531      0.18765548     -2.25531103
