12
b3lypvtz=-202906.61875249
C       2.57826464      0.23135072     -0.64280829
C       1.54609756     -0.23526724     -0.25109986
C       0.27502927     -0.77981454      0.20177021
C      -0.94769777      0.02722297     -0.29656323
C      -0.94843777      1.39801910      0.24598592
N      -0.98315659      2.44787293      0.71457085
O      -2.16411345     -0.63604698     -0.00491534
H       3.49592690      0.64451299     -0.98061506
H       0.25194140     -0.82493190      1.29403067
H       0.14351722     -1.79882311     -0.16749240
H      -0.90084532      0.09539456     -1.38372550
H      -2.34652610     -0.56948949      0.93923479
