14
b3lypvtz=-203688.45150579
C      -2.84360843     -0.30020684     -0.00002836
N      -1.57198376     -0.27232014     -0.00001339
C      -0.90255868      0.94987512     -0.00000047
C       0.44112599      1.02340286      0.00000513
C       1.38433163     -0.08835014      0.00000450
C       2.70861815      0.14315436     -0.00000340
O       0.90972905     -1.35589127      0.00001128
H      -3.45259068      0.60833871     -0.00001125
H      -3.35603975     -1.25590083     -0.00001805
H      -1.50230240      1.85935077     -0.00000540
H       0.88858064      2.00803759      0.00001010
H       3.41307550     -0.67527180     -0.00000741
H       3.08732677      1.15278292     -0.00000514
H      -0.06891002     -1.31421531     -0.00000114
