19
b3lypvtz=-192724.85565773
C       2.78843532     -0.46035371      0.19205846
N       1.76857283      0.50868704     -0.18899816
C       0.44319238      0.18378666      0.30368696
C      -0.33408452     -0.91686621     -0.46729325
C      -1.59091890     -0.00846418     -0.47713223
N      -2.62057042     -0.45417831      0.45484811
C      -0.67521480      1.18801558     -0.05778083
H       3.76371837     -0.12616194     -0.16234800
H       2.57674549     -1.42023902     -0.28258728
H       2.85546545     -0.63511790      1.27774953
H       2.03178835      1.43037547      0.14031783
H       0.44803614     -0.03490759      1.38375563
H      -0.45991914     -1.88580896      0.01517937
H       0.08260765     -1.05959582     -1.46404605
H      -2.06456084      0.10954644     -1.45120915
H      -2.23878036     -0.57285189      1.38709648
H      -3.35704492      0.23928839      0.52828366
H      -0.38184670      1.80092986     -0.91155073
H      -1.04991737      1.83252407      0.73854164
