14
b3lypvtz=-180352.83166925
C      -3.31617911      0.84899411      0.16248452
C      -2.40206340      0.07690758      0.09080674
C      -1.29308823     -0.87290642      0.02119762
N      -0.10237497     -0.26961251     -0.56888514
C       0.95411320     -0.25501219      0.13429187
C       2.19973945      0.31123215     -0.36743617
C       3.32348276      0.33099285      0.34813796
H      -4.12261679      1.53623951      0.22120208
H      -1.59174707     -1.71024736     -0.61758145
H      -1.10336681     -1.28194301      1.02446856
H       0.98241069     -0.66847470      1.15282867
H       2.16134051      0.72208652     -1.36921265
H       3.36213982     -0.07908287      1.35046908
H       4.23838595      0.75597534     -0.04066467
