12
b3lypvtz=-226232.740386
N      -1.54193917     -1.46516713      0.49307400
C      -1.16667231     -0.33909827      0.93345366
C      -0.34182510      0.68157832      0.23431597
O      -0.84136913      1.91674330      0.47040326
C       0.76080254      0.45720109     -0.51108775
C       1.43219819     -0.82660863     -0.67707279
O       2.40232284     -0.97700128     -1.39075849
H      -1.21545522     -1.62285676     -0.46152921
H      -1.49827855     -0.03497146      1.92712965
H      -0.27788863      2.58731966      0.06424033
H       1.25405740      1.29566139     -0.99372879
H       1.03404714     -1.67280025     -0.08843985
