18
b3lypvtz=-181893.44778024
C      -1.88815315     -1.27665223      0.01338002
C      -1.09308342     -0.00000007     -0.00903177
C      -1.88815319      1.27665205      0.01338133
C       0.23293326     -0.00000003     -0.04874916
C       1.31137590     -1.06716049     -0.04461897
N       2.32042968     -0.00000018      0.21851972
C       1.31137591      1.06716041     -0.04461787
H      -2.52641735     -1.32403935      0.90122363
H      -2.55453976     -1.33816682     -0.85277516
H      -1.24994542     -2.15937142      0.00895384
H      -2.55453979      1.33816751     -0.85277379
H      -2.52641740      1.32403824      0.90122498
H      -1.24994549      2.15937126      0.00895606
H       1.26125903     -1.82650069      0.74031492
H       1.42900183     -1.57695860     -1.00911212
H       3.09618148      0.00000015     -0.43064096
H       1.26125905      1.82649980      0.74031680
H       1.42900184      1.57695951     -1.00911050
