18
b3lypvtz=-205202.78399968
C      -0.62222029      1.85024219     -0.05980229
C      -0.05512137      0.44052400      0.03902759
C       1.47362896      0.46008606      0.08015268
O       2.01760316     -0.84078707     -0.01206725
C      -0.75989471     -0.45489811      1.09803536
C      -1.50689010     -1.12065154     -0.07647768
N      -0.53859058     -0.50448425     -1.01928155
H      -0.28067825      2.34454948     -0.97266929
H      -0.29958354      2.45906208      0.78829331
H      -1.71361527      1.83999143     -0.06591475
H       1.81795452      0.89647301      1.02098755
H       1.84411923      1.09684578     -0.73697975
H       1.47431766     -1.28453122     -0.68213189
H      -1.36668146      0.06425994      1.83698582
H      -0.06570359     -1.12765314      1.59602891
H      -1.51864298     -2.21092114     -0.10430046
H      -2.53187985     -0.75755222     -0.19179228
H      -0.93941155     -0.06918127     -1.84178204
