16
b3lypvtz=-202034.30215765
N      -2.63758663      0.57044418      0.29568704
C      -2.03137162     -0.35086963     -0.34072813
N      -0.72407074     -0.76811053     -0.25438168
C       0.27940629     -0.06705817      0.50800669
C       1.65706622     -0.76793692      0.48415251
N       2.10433887      0.19167182     -0.55086254
C       0.99658893      1.11654585     -0.20808891
H      -2.01814804      1.08203141      0.92238800
H      -2.60513807     -0.94670152     -1.05107007
H      -0.38896497     -1.33620268     -1.01575608
H      -0.11905949      0.15454398      1.49603654
H       2.17389549     -0.68496213      1.44574371
H       1.66476868     -1.81515609      0.17267037
H       3.03930778      0.56058799     -0.43621848
H       1.26929897      1.91474430      0.49102078
H       0.48200631      1.54993314     -1.06651576
