13
b3lypvtz=-190447.78559285
C       2.25672551      0.71926661     -0.50875560
N       1.19569900      0.07398977     -0.74461256
C       0.22921243     -0.03696798      0.28750182
C      -0.57084558     -1.30397975      0.34465700
C      -1.22591795     -0.04743849     -0.17817958
C      -2.21134673      0.63399757      0.60753730
N      -2.99744902      1.18116324      1.24798869
H       2.47050786      1.20160378      0.45117050
H       3.00522740      0.80918354     -1.29076629
H       0.42614153      0.47106297      1.22893228
H      -0.87635592     -1.66103649      1.31672886
H      -0.33884796     -2.06190483     -0.38832837
H      -1.36275058      0.02106007     -1.24811947
