9
b3lypvtz=-235509.66938263
O       0.96980843     -0.04868948     -0.29408297
C       2.14723035      0.00823050     -0.06313619
C       2.91047325      1.26651116      0.12523814
N       2.37616148      2.46004765      0.05743864
O       3.38469397      3.33043122      0.28132516
N       4.58070638      2.68123933      0.49624228
C       4.29870457      1.41762489      0.40286968
H       2.76656894     -0.90512410      0.02832591
H       5.06195263      0.66812883      0.53047936
