12
b3lypvtz=-252152.16602341
C       1.86683654     -0.64216294     -0.10532396
O       3.06358443     -0.45524929     -0.22089861
C       0.85035157      0.36257122     -0.17809093
C      -0.49858663      0.18845338     -0.03157012
N      -1.38028370      1.18769880     -0.35200350
N      -1.09465727     -0.95893412      0.45640387
F       1.25488396      1.63421539     -0.47032831
H       1.47307570     -1.66944861      0.05766576
H      -2.19734107      1.25953921      0.23383203
H      -0.95881181      2.06985071     -0.59404493
H      -0.47100120     -1.71796086      0.67519663
H      -1.90805052     -1.25857291     -0.06254245
