16
b3lypvtz=-181151.89494792
N       2.22455762     -0.10764242      0.46808013
C       1.04888662     -0.02206252     -0.42481247
C       0.20808408     -1.25577635     -0.23999824
C      -1.09026312     -1.23538147      0.04087156
C      -1.88547628      0.02637282      0.19462420
C      -1.05356411      1.26436979      0.04575217
C       0.24284866      1.24021635     -0.24675302
H       2.87142589      0.64825592      0.27071893
H       1.92435315      0.00764818      1.43057027
H       1.46094929     -0.03753901     -1.44224940
H       0.73799095     -2.19698159     -0.32635081
H      -1.62507206     -2.17017243      0.16949648
H      -2.70668534      0.04120989     -0.53469070
H      -2.39001351      0.03101756      1.16972106
H      -1.55795490      2.21489021      0.18315514
H       0.79002705      2.17250608     -0.34878630
