16
b3lypvtz=-204448.50659928
C      -1.56453028      1.12289856     -1.14038287
C      -1.06533917      0.37826837      0.08759747
C      -1.32459756     -1.13905952      0.19298423
O       0.11551441     -1.39850763      0.22433098
C       0.39122720     -0.03999024      0.09271630
N       1.47790502      0.56235702     -0.00404021
C       2.72789723     -0.18467224      0.01647855
H      -1.32091922      0.58001132     -2.05509882
H      -1.09771795      2.10594775     -1.20070863
H      -2.64643591      1.26097269     -1.10173715
H      -1.33153683      0.91551618      0.99870378
H      -1.80271889     -1.49441346      1.10441381
H      -1.78039245     -1.60043964     -0.68308215
H       3.28615037      0.07848374      0.91764434
H       3.33562102      0.12216230     -0.83638330
H       2.59987300     -1.26953521     -0.01035427
