14
b3lypvtz=-224557.76242337
C       2.85442585      0.00333765     -1.06887028
N       1.61126195      0.23890146     -1.02563812
O       0.98799947     -0.48999059      0.00472381
C      -0.38397413     -0.19868911      0.05129358
C      -0.88322911      0.24927546      1.20394995
N      -2.24195133      0.36763176      1.48079391
N      -1.18533041     -0.48661112     -1.07318034
H       3.42096996      0.51840716     -1.83335056
H       3.34979726     -0.67755659     -0.38101445
H      -0.20878365      0.45847801      2.02290427
H      -2.80852970      0.34258006      0.64384598
H      -2.47896699      1.14482328      2.07778668
H      -1.18688423     -1.47791464     -1.29292620
H      -0.84680497      0.00732722     -1.89163783
