13
b3lypvtz=-192842.42477227
O       2.20813033     -0.88590581      0.00000714
C       2.06834542      0.32040150     -0.00000845
C       0.78700087      1.03168616     -0.00000958
C      -0.40065937      0.40943644     -0.00000711
C      -1.80244459      0.81665124      0.00000935
C      -2.24460570     -0.45643737     -0.00000706
C      -0.84344653     -1.06171632      0.00000676
H       2.95975825      0.98022341      0.00000691
H       0.82678525      2.11553303     -0.00001087
H      -2.28923913      1.78157504      0.00001978
H      -3.23132636     -0.89815662     -0.00001924
H      -0.55543520     -1.62787439      0.88566509
H      -0.55542024     -1.62787831     -0.88564370
