13
b3lypvtz=-213773.88544551
N      -0.84992638      1.87652785     -0.01765229
C      -0.15010655      0.82316188      0.00005276
O       1.20822280      0.90026044      0.02953221
C       1.77274079     -0.41829269     -0.00408059
C       0.59898377     -1.34252659     -0.00798643
C      -0.52397933     -0.61470466     -0.00162965
N      -1.85265626     -0.98880063     -0.06302148
H      -1.84003174      1.65713680     -0.07661013
H       2.41738651     -0.54057769      0.87164761
H       2.39932001     -0.49957986     -0.89797491
H       0.68673757     -2.41835642     -0.01190419
H      -2.48568278     -0.37427733      0.42711625
H      -2.03791042     -1.95684111      0.14676485
