17
b3lypvtz=-215283.8499589
C      -2.27047503     -0.91070644     -0.01604631
N      -0.83224754     -1.10515096     -0.02304343
C      -0.06375300     -0.08599263      0.00596165
C      -0.53812019      1.36163186      0.08793242
O       0.50249881      2.33142172      0.02795512
N       1.29615132     -0.22941360     -0.06007584
C       1.90813265     -1.53984129      0.02820721
H      -2.63482731     -0.36581940     -0.89732519
H      -2.75735828     -1.88533345     -0.01894397
H      -2.63037262     -0.37225471      0.87059568
H      -1.03886932      1.51431682      1.04550907
H      -1.28562243      1.53723787     -0.69139403
H       0.81550022      2.38409196     -0.88054102
H       1.82261981      0.56399630      0.26526301
H       2.98585283     -1.43324908     -0.08498502
H       1.52685888     -2.17991867     -0.76592128
H       1.69041619     -2.03718230      0.97841194
