14
b3lypvtz=-203689.1358488
C       1.67426945     -0.89749678     -1.43086496
C       0.76736199     -0.40482091     -0.58016337
N       0.43163584      0.94774481     -0.49521857
C      -0.38749292      1.44037734      0.50683415
C      -1.18921287      0.61803989      1.18445998
C      -1.16380181     -0.81998935      0.77922530
O       0.15295283     -1.21142958      0.32187084
H       1.86770384     -1.95667811     -1.45405867
H       2.24407494     -0.24463063     -2.07416809
H       1.00210899      1.58442322     -1.02084393
H      -0.32378106      2.50431235      0.68623392
H      -1.81431269      0.96144789      1.99310077
H      -1.38103400     -1.49039501      1.60838742
H      -1.88047251     -1.03090513     -0.02479477
