16
b3lypvtz=-181155.84903572
C      -2.41272112      0.00474512      0.02153927
C      -1.06851596      0.01225467     -0.03136051
C      -0.30798872      1.25805380      0.07728325
C       1.02399501      1.29687306     -0.00633576
C       1.83961822      0.04661905     -0.17129471
C       1.04777791     -1.16994408      0.30201614
N      -0.30104215     -1.13117383     -0.25682818
H      -2.96072890      0.92931375      0.11706156
H      -2.98425227     -0.91026550     -0.06103328
H      -0.88374354      2.16486933      0.20692814
H       1.54348623      2.24666598      0.03725104
H       2.12487570     -0.07541490     -1.22254069
H       2.77107430      0.11959742      0.39585090
H       1.52673617     -2.09210178     -0.02824220
H       1.03378925     -1.17921730      1.40178415
H      -0.81690514     -1.98984079     -0.14071511
