10
b3lypvtz=-202155.25508565
C      -0.81761871     -0.75761824     -0.07890769
C      -1.85211572      0.37381725     -0.14991908
O      -2.84117554      0.30142745     -0.82068194
C       0.54416842     -0.27776109      0.03818176
C       1.66251590      0.16125218      0.12863168
C       2.93656429      0.64547797      0.23235132
N       4.01375721      1.05613236      0.32158992
H      -0.94420117     -1.39667354     -0.95462870
H      -1.07016571     -1.36116420      0.80212108
H      -1.63172894      1.25510986      0.48126165
