21
b3lypvtz=-193487.93752434
C      -3.06895970      0.19293102     -0.34590619
N      -1.62346656      0.11585842     -0.45486466
C      -0.97103162     -0.44109143      0.71774823
C       0.46609312     -0.88188505      0.44581824
N       1.28047479      0.08333695     -0.27977626
C       2.60128243     -0.45165666     -0.55575846
C       1.34854899      1.38470488      0.36289689
H      -3.48910976      0.57764875     -1.27555687
H      -3.55645424     -0.76969781     -0.11878768
H      -3.34109561      0.89029371      0.45034716
H      -1.34348686     -0.38594870     -1.28723726
H      -0.99389103      0.30873278      1.51534098
H      -1.50130075     -1.32216050      1.11889549
H       0.92013991     -1.15337260      1.41813231
H       0.44659822     -1.79901361     -0.15136909
H       3.19204740     -0.64154570      0.35895053
H       3.16192171      0.24757285     -1.17746929
H       2.51589217     -1.39428132     -1.09900988
H       1.97826400      2.04687505     -0.23238665
H       1.77334703      1.34160972      1.38215098
H       0.35487237      1.82601127      0.41282247
