16
b3lypvtz=-204444.52377154
C      -2.61521612     -1.08076367      0.12932409
C      -2.01267842      0.03275118     -0.28271664
C      -0.62307984      0.39918632     -0.02038792
O      -0.42021283      1.74526146      0.06431922
C       0.40600340     -0.45732061      0.09522130
N       1.70521422      0.06034593      0.36761509
C       2.79647680     -0.59966231     -0.34458676
H      -2.11090086     -1.80566928      0.75486815
H      -3.63946851     -1.29412333     -0.14417204
H      -2.56764478      0.76696673     -0.85754354
H       0.54628643      1.85117209      0.11771838
H       0.26815560     -1.52174535     -0.06353758
H       1.89592193      0.07934089      1.36343806
H       2.68510667     -0.43163515     -1.41588044
H       2.83340454     -1.68449061     -0.17479161
H       3.74795877     -0.16994529     -0.03100377
