15
b3lypvtz=-214527.55066022
C      -2.60712584     -0.28977995      0.26701627
C      -1.20414814     -0.26001324     -0.25446073
C      -0.14210816      0.14976296      0.43919302
N       1.14113292      0.32273573     -0.11545989
C       2.31276105     -0.12565019      0.47624317
N       3.48144325     -0.14496607     -0.01887041
O      -0.21846673      0.44715064      1.77357685
H      -3.29214463      0.21976213     -0.41581217
H      -2.67499689      0.18956530      1.24187120
H      -2.97327311     -1.31488546      0.37472379
H      -1.02801143     -0.60552256     -1.26561247
H       1.17112293      0.48890842     -1.10964651
H       2.16555813     -0.47612164      1.49560751
H       3.50035681      0.20963817     -0.97695225
H       0.36789985      1.18941573      1.96526504
