16
b3lypvtz=-181154.09610683
C      -0.65097596     -1.60235083      0.33394244
C      -0.33602699     -0.35470452     -0.49723592
C      -1.44448289      0.73349624     -0.42281577
N      -0.85026497      1.95146555      0.14539121
C       0.38913472      1.74056162      0.35463293
C       0.88248988      0.40669035     -0.00165410
C       2.14284377     -0.01127365      0.10419313
H       0.17087417     -2.31904936      0.29866403
H      -0.82036300     -1.33865279      1.37962366
H      -1.54780673     -2.10104687     -0.03867549
H      -0.17804254     -0.65786130     -1.53455875
H      -2.28462910      0.42849068      0.20645951
H      -1.86213805      0.97787768     -1.40219511
H       1.02635600      2.51478522      0.77324236
H       2.91815433      0.64176044      0.48455002
H       2.44497736     -1.01008846     -0.18356414
