14
b3lypvtz=-227021.98088236
C      -1.68626615     -1.07253273     -0.60394227
C      -1.21173915      0.24830569     -0.08201656
N      -1.82472374      1.13533676      0.55669527
O       0.10829966      0.56012750     -0.45693938
C       1.13387856     -0.09123663      0.16398223
C       2.45646959      0.40718441     -0.34629404
O       0.97230760     -0.93115693      1.00720915
H      -2.73464335     -1.23084139     -0.35948159
H      -1.09133077     -1.87602485     -0.17040267
H      -1.56187183     -1.10859030     -1.68793423
H      -2.78693954      0.85291046      0.72919619
H       2.56696578      1.46285928     -0.09603816
H       3.25889136     -0.16633980      0.10722613
H       2.49835799      0.32440254     -1.43217408
