20
b3lypvtz=-182670.40706279
C      -0.77576486      1.63164804     -0.50456304
C      -0.26738820      0.43966705     -0.20455760
C      -1.10820466     -0.75601960      0.17440353
C      -2.61412756     -0.52898806      0.27272289
C       1.24135480      0.22959647     -0.21759964
C       1.83041683      0.27147260      1.20446716
N       1.59294494     -0.99293949     -0.96389155
H      -0.13599080      2.45620340     -0.79447864
H      -1.83699826      1.83522772     -0.47690050
H      -0.91187122     -1.54188648     -0.56181682
H      -0.74482901     -1.15474309      1.12877236
H      -3.03163090     -0.20161583     -0.68045616
H      -2.85964682      0.22485368      1.02242837
H      -3.11878898     -1.45442556      0.55340403
H       1.67131557      1.06006104     -0.78076913
H       2.91746861      0.17317501      1.16546306
H       1.58950349      1.20972156      1.70711438
H       1.44518614     -0.54722440      1.81659201
H       1.41716113     -1.81666938     -0.39838376
H       2.58717775     -0.99553470     -1.16059294
