16
b3lypvtz=-204402.75798971
C       1.87654380      0.09561831     -0.01529308
C       0.43189143     -0.21537342     -0.34756579
O       0.34040011     -1.03046711     -1.50133554
C      -0.57505384     -0.52053333      0.81672620
C      -1.73323311     -0.16086652     -0.15017604
C      -0.62922786      0.91847200     -0.32042705
N      -0.43237588      0.94816953      1.18929423
H       1.94902554      0.73580265      0.85860819
H       2.42337995     -0.83069244      0.18795263
H       2.35548912      0.58728479     -0.86397423
H       1.05952490     -1.66843259     -1.47783794
H      -0.52799579     -1.30945980      1.56722117
H      -1.94280303     -0.82683682     -0.98287494
H      -2.64269315      0.19105002      0.33804271
H      -0.64717901      1.82957794     -0.91730000
H      -1.30559320      1.25678679      1.61883947
