14
b3lypvtz=-203691.0007944
C      -3.17727202      0.25328972      0.00003874
C      -2.06126132     -0.47444509     -0.00001120
N      -0.80098660      0.11436459     -0.00004676
C       0.24290992     -0.62389888     -0.00007169
C       1.55681524      0.01219557     -0.00001538
C       2.68926438     -0.70321120      0.00004791
O       1.54840886      1.36396963     -0.00001104
H      -3.13227521      1.33375721      0.00005786
H      -4.14865945     -0.21916239      0.00005114
H      -2.10791878     -1.56423543     -0.00003379
H       0.20640235     -1.71622473      0.00001794
H       2.64290766     -1.78124117      0.00001010
H       3.65757475     -0.22589309      0.00009889
H       0.61029021      1.62449824     -0.00001372
