14
b3lypvtz=-201289.01283271
C      -1.23724676      1.28513257     -0.42682095
C      -0.98202578      0.00013503     -0.11124078
C       0.38099094     -0.48204575      0.23915707
N       0.57357708     -1.73809854      0.33200904
C       1.48694621      0.50359961      0.48165709
N       2.65726244      0.07192294      0.70405297
N      -1.93729858     -0.98956663     -0.07221389
H      -2.23321739      1.60043477     -0.70752495
H      -0.47276549      2.04137851     -0.43003092
H       1.55248347     -1.91608405      0.56833667
H       1.23247953      1.56217073      0.47963024
H       3.31380979      0.83227396      0.86857098
H      -1.56086463     -1.92583154     -0.08250147
H      -2.77413082     -0.84542161     -0.60994738
