18
b3lypvtz=-181915.80516468
C       1.80388017      0.91761223     -0.18893160
C       0.60416415      0.13719236      0.33248792
C       0.69699230     -1.40057243      0.18953784
C      -0.73663005     -1.81774097     -0.02196078
C      -1.51466188     -0.78029896     -0.31273885
C      -0.74446543      0.52442552     -0.33042754
N      -1.35084115      1.68001606      0.33916882
H       1.97765927      0.70817127     -1.24753210
H       1.63946190      1.99053813     -0.07880545
H       2.71576527      0.65948461      0.35359933
H       0.48506476      0.36000707      1.39806041
H       1.16007392     -1.87759851      1.05679993
H       1.30831297     -1.67983076     -0.67732373
H      -1.06192564     -2.84931789      0.02366101
H      -2.57132831     -0.83282395     -0.54555239
H      -0.57094458      0.83210251     -1.36914196
H      -2.15340005      2.01830047     -0.17877914
H      -1.68717762      1.41033325      1.25787828
