15
b3lypvtz=-216893.36750746
C       2.60959785     -0.63595386     -0.24580383
C       1.47417986     -0.27696705     -0.11251484
C       0.09257509      0.20402754      0.08342930
C      -0.17815810      1.45405836     -0.75276999
O      -0.11132762      0.58353057      1.43515390
O      -0.72848856     -0.89942247     -0.26709762
C      -2.13474548     -0.68353196     -0.20405801
H       3.61253961     -0.96096888     -0.36905089
H      -1.16644554      1.84838914     -0.52256969
H       0.55987196      2.21692527     -0.51486401
H      -0.11633731      1.21293732     -1.81233361
H       0.18135624     -0.14766678      1.99202373
H      -2.59132633     -1.66801898     -0.28058834
H      -2.42880857     -0.22344251      0.74109563
H      -2.48977810     -0.06737571     -1.03453273
