16
b3lypvtz=-204449.82258077
C       3.49137457      0.04130614     -0.18147367
N       2.12684842     -0.46671037     -0.24567851
C       1.14611165      0.42107927      0.36769289
C      -0.20789475     -0.21165864      0.38265115
C      -1.34085354      0.36522736     -0.02429415
C      -2.62419099     -0.34116419      0.05016465
O      -3.68524161      0.12675988     -0.29473763
H       3.81549454      0.08332927      0.86032212
H       3.61773120      1.04654146     -0.61180771
H       4.15781618     -0.64157637     -0.70778159
H       1.86833083     -0.64046822     -1.20944079
H       1.46053348      0.58268633      1.40624663
H       1.09535922      1.41669342     -0.10037311
H      -0.23802882     -1.23048817      0.76061030
H      -1.36306802      1.37362365     -0.42289558
H      -2.56187634     -1.37294582      0.45599099
