11
b3lypvtz=-241308.92912798
C      -2.38665068     -0.99713319      0.00000334
N      -1.12803621     -0.85161901     -0.00011063
C      -0.66134740      0.52496650     -0.00006406
O      -1.39453270      1.48819361     -0.00008049
C       0.79662963      0.64797067      0.00001242
C       1.60070648     -0.41226553     -0.00001321
F       2.92767078     -0.27454794      0.00006325
H      -2.79751337     -2.00326398      0.00009400
H      -3.07520763     -0.14980423      0.00027463
H       1.20391238      1.64930334      0.00009113
H       1.27562471     -1.44181624     -0.00009939
