12
b3lypvtz=-223788.0134694
C      -2.71966037      1.03317451      0.10097549
C      -1.71888387      0.23622280     -0.26107621
N      -0.39590679      0.65572573     -0.03863428
N       0.43397809     -0.16602422     -0.41733680
O       1.71649017      0.34731555     -0.15038626
C       2.73370889     -0.50729228     -0.54437328
N       2.68514714     -1.63390186     -1.08731548
H      -2.52044535      1.99127441      0.56037848
H      -3.74735002      0.74045658     -0.05620910
H      -1.86835969     -0.73337076     -0.72521104
H       3.67124138     -0.01975691     -0.29409604
H       1.73004043     -1.94382354     -1.25241168
