13
b3lypvtz=-237095.28565381
N      -1.86920000     -0.58620203      1.00196046
C      -1.81172279      0.08374111     -0.06508326
C      -0.59034222      0.71510134     -0.70683079
N       0.63359111      0.57420836      0.05085804
C       1.63022435     -0.32825906     -0.16231565
O       2.64701142     -0.39748040      0.48945594
O       1.35411763     -1.15487218     -1.20640282
H      -0.93922200     -0.67396486      1.42150091
H      -2.73941674      0.25047385     -0.61879206
H      -0.79552755      1.77790892     -0.86769247
H      -0.45069739      0.27854142     -1.69592783
H       0.81764734      1.20816510      0.80962575
H       2.11363683     -1.74736157     -1.27685622
