12
b3lypvtz=-226250.17139436
C      -3.16026789      0.25520603      0.00011387
N      -2.14553066     -0.51005939      0.00008848
C      -0.88800992      0.09163248      0.00006286
C       0.22491677     -0.65021409      0.00003281
C       1.58708770     -0.09914046      0.00000545
O       2.58912857     -0.77367009     -0.00000683
O       1.63024325      1.25985675      0.00001669
H      -4.15403366     -0.18234833     -0.00000966
H      -3.08849243      1.34863276     -0.00004831
H      -0.83015471      1.17983067      0.00007578
H       0.16120713     -1.72864241      0.00003061
H       2.56792884      1.49986708      0.00000725
