16
b3lypvtz=-181105.11786287342
C      -1.53481405     -0.76261257     -0.23475979
N      -0.33912128     -0.34120798      0.55642023
C       0.74146427     -1.37519023      0.54391757
C       1.75388801     -0.83275732     -0.20357783
C       1.52397791      0.50153213     -0.56089271
C       0.29273446      0.92606392     -0.01906607
C      -0.38056496      2.08735757      0.13804023
H      -1.96444113     -1.65424853      0.21767338
H      -1.19368294     -0.97922720     -1.24239567
H      -2.25798661      0.05125970     -0.25061829
H      -0.62946411     -0.13372674      1.50711960
H       0.44406276     -2.39584224      0.70539681
H       2.63838694     -1.38999126     -0.47757147
H       2.20903846      1.15204045     -1.07543924
H       0.03929717      3.00986172     -0.23124866
H      -1.34277490      2.13668859      0.62700190
