14
b3lypvtz=-226997.45021298
C      -1.70539644      0.56898772      0.06472499
N      -2.95437866      0.16890373     -0.44984220
O      -0.61826107     -0.30302101     -0.40820575
C       0.60868040     -0.00506806      0.02304249
C       1.70357337     -0.70420833     -0.31641884
C       2.99971813     -0.30641099      0.20147962
O       4.05052194     -0.86368607     -0.03870582
H      -1.47289612      1.58514520     -0.25751786
H      -1.71332283      0.51930592      1.15463727
H      -2.99573420      0.22316483     -1.45851740
H      -3.21781648     -0.76123284     -0.15398551
H       0.69280229      0.85656259      0.68405397
H       1.64488065     -1.56354992     -0.97114766
H       2.97762901      0.58510722      0.86666486
