12
b3lypvtz=-228830.12408627
C       3.00254944     -0.20173446      0.00020069
C       1.69472764     -0.45780154     -0.00004465
N       0.77500810      0.58799415      0.00003448
C      -0.46361767      0.36364187     -0.00020934
F      -1.27989978      1.44449708      0.00013366
N      -1.09615750     -0.86970661      0.00006649
C      -2.36623493     -0.93587178      0.00014886
H       3.36698261      0.81625050      0.00036071
H       3.72322188     -1.00676626      0.00022011
H       1.31544606     -1.47493906     -0.00031159
H      -2.82737679     -1.91906572      0.00029403
H      -3.01837107     -0.06356918     -0.00028347
