13
b3lypvtz=-239487.39346628
C       2.73531517     -0.62759550      0.00003439
O       2.08863933      0.64532532      0.00000331
C       0.75261061      0.67198561     -0.00001340
C      -0.08938274     -0.37388741     -0.00000601
C      -1.54121088     -0.21683504     -0.00000734
O      -2.32854106     -1.13547718      0.00002912
O      -1.95965109      1.08153175      0.00002680
H       3.80155749     -0.42209755      0.00004572
H       2.46701452     -1.19719858      0.89195847
H       2.46703991     -1.19722971     -0.89187741
H       0.38565775      1.68924240     -0.00003438
H       0.24820014     -1.39801722      0.00000724
H      -2.92642614      1.04693311      0.00005349
