17
b3lypvtz=-194344.68835135
C       2.35677494      0.21031640      0.24698033
C       0.89650929      0.04456087     -0.01789267
C       0.13699131     -0.06479646     -1.36201568
C      -0.89850879      0.11123855     -0.22512110
C      -0.12363755     -0.93186228      0.61574664
O      -0.01545196      1.16798532      0.35449028
C      -2.36473546      0.38526233     -0.29723978
H       2.90195898     -0.68011717     -0.07126500
H       2.74918240      1.06931411     -0.29906571
H       2.53705366      0.36393406      1.31181124
H       0.24574550      0.79078674     -2.02591752
H       0.16185247     -1.02068001     -1.88688610
H      -0.12227292     -1.96692106      0.27147364
H      -0.24480327     -0.83964637      1.69342515
H      -2.88689463     -0.46524260     -0.73922856
H      -2.77031442      0.55920078      0.70038815
H      -2.55944956      1.26666678     -0.90977783
