15
b3lypvtz=-212098.1440925
C       2.22839687      0.88354953      0.00363760
N       1.87758550     -0.52308302     -0.05206877
C       0.64035987     -1.06168314     -0.03290698
C      -0.59277763     -0.47586483      0.04092769
N      -1.73161685     -1.34083124      0.04088029
N      -0.70094639      0.90336858      0.11192603
N      -1.88246414      1.34373697      0.17678009
H       3.31394033      0.96438573     -0.03083958
H       1.79797834      1.43278835     -0.83406895
H       1.85988423      1.34775443      0.91867307
H       2.63702915     -1.17520305     -0.11157006
H       0.63192497     -2.14233660     -0.08528587
H      -2.28800415     -1.15474954      0.87147078
H      -2.34655492     -1.07769183     -0.72507882
H      -1.80223618      2.36541666      0.22349249
