12
b3lypvtz=-226151.04281288
O       0.78539289     -0.14054113      0.16803004
C       1.96158177     -0.16201370      0.03337192
N       2.97467698     -1.10178836      0.47164235
C       3.83285670     -0.66547440     -0.66659372
C       5.06356185      0.19111250     -1.12925414
O       4.07229077      1.17011559     -1.65492721
C       3.20263246      0.66099880     -0.56391574
H       2.71033530     -2.06721180      0.62334289
H       3.49794779     -1.15595250     -1.58218136
H       5.67297250     -0.21375873     -1.93357977
H       5.66262683      0.63734177     -0.33486533
H       3.54892415      1.18757198      0.33243007
