13
b3lypvtz=-211340.39435587
C      -2.72616453     -0.60584818      0.05934758
N      -1.74502998      0.18689436     -0.09688297
N      -0.49177205     -0.30753277      0.00545543
C       0.59382361      0.56397551      0.03538633
N       0.55476060      1.83192058     -0.04050091
C       1.93640780     -0.08407147      0.13179607
N       2.25754830     -1.28664700     -0.10703276
H      -3.72304872     -0.19955516     -0.03910757
H      -2.61146236     -1.66892418      0.28309116
H      -0.36641264     -1.25676199      0.33917297
H      -0.40694129      2.16049481     -0.12737676
H       2.71410187      0.62094557      0.41855964
H       1.46180441     -1.84987508     -0.41356221
