16
b3lypvtz=-204419.70178089
C      -1.14603461     -1.20112520     -0.26045081
C      -0.53601112      0.14477236     -0.01292184
C      -1.52435516      1.26973151      0.08315355
C       0.80559379      0.30587276      0.11043796
C       1.83223167     -0.78806333      0.02070947
N       1.22700250      1.64796322      0.34394569
O       2.42732326      1.82171537      0.45859332
H      -1.85519364     -1.44213195      0.53715958
H      -0.41697751     -2.00332502     -0.32681257
H      -1.72700356     -1.18336626     -1.18742063
H      -2.23847181      1.06513661      0.88634310
H      -2.10961601      1.32568287     -0.83951678
H      -1.04989875      2.22708057      0.26293289
H       1.68274060     -1.54751000      0.78959740
H       2.82078145     -0.35545515      0.15698027
H       1.80778889     -1.28697837     -0.94923062
