14
b3lypvtz=-224615.13762887
C      -2.70165133      0.70019404     -0.00002236
N      -2.00396662     -0.57368098      0.00003679
C      -0.66390473     -0.67664301      0.00001310
N       0.09284640      0.36515242     -0.00000264
C       1.46692611      0.19763652      0.00000097
N       2.32540318      1.13362655     -0.00000148
O       1.91044281     -1.09652792      0.00000422
H      -2.43830302      1.28619839     -0.88115732
H      -2.43801405      1.28640240      0.88088589
H      -3.77302372      0.51292973      0.00017535
H      -2.53948092     -1.42191627     -0.00004061
H      -0.28477949     -1.69752712      0.00002028
H       1.84902584      2.03026497     -0.00000450
H       2.87444055     -1.03436171      0.00000430
