13
b3lypvtz=-239661.19907626
N      -2.60791024      0.11645869     -1.27776012
C      -1.30127217      0.25725141     -0.88184197
C      -0.70909252     -0.38573607      0.13958503
C       0.70266625     -0.27006801      0.42792463
F       1.02743824     -0.76395288      1.67154478
N       1.60097132      0.21985165     -0.31176622
N       2.88053525      0.37886378      0.20114478
H      -3.24479765     -0.33711030     -0.64293864
H      -3.01618073      0.87396248     -1.79727558
H      -0.70701576      0.91300586     -1.50624383
H      -1.27511699     -1.03118534      0.79914052
H       3.11287671     -0.30322085      0.91609693
H       3.53689828      0.33187959     -0.56401029
