16
b3lypvtz=-181135.50461382
C       2.04989010     -0.90810068     -0.22830650
C       0.80805582     -0.11455071     -0.01557882
C       0.46759902      1.08076878     -0.49897016
C      -0.89980136      1.49635668     -0.01124115
C      -1.33367975      0.26065653      0.77062012
N      -0.19594027     -0.68948001      0.84484055
C      -1.41721037     -1.04790374      0.08336062
H       2.75158948     -0.38156930     -0.87363149
H       2.53590666     -1.11667829      0.72734617
H       1.81818755     -1.87576621     -0.68205359
H       1.08186671      1.68437131     -1.15129432
H      -0.85214216      2.36932953      0.64704616
H      -1.58517042      1.75490312     -0.82405317
H      -1.88646768      0.39590928      1.69089900
H      -1.33208183     -1.06595786     -0.99715922
H      -2.01060152     -1.84228844      0.51817578
