13
b3lypvtz=-237069.7661048
N       1.63859434      1.63438874     -0.88576786
C       1.74832374      0.47041213     -0.40924679
O       2.90853336     -0.22547968     -0.34322608
N       0.67842066     -0.26169120      0.16068867
C      -0.49742561      0.01301467     -0.22531355
C      -1.69907227     -0.65794898      0.37145592
O      -2.70823229     -0.92007390     -0.59235988
H       2.53667451      1.97913078     -1.21576538
H       2.72097421     -1.05506443      0.11598011
H      -0.67523848      0.76891439     -0.99691645
H      -2.07580824     -0.02965888      1.19036206
H      -1.40516691     -1.61334435      0.80302418
H      -3.17067703     -0.10269929     -0.79961493
