13
b3lypvtz=-242069.58937278
N      -2.74799907     -0.20436690     -0.10906427
C      -1.36800941     -0.01158793      0.01773252
O      -1.01701598      1.30666779      0.03415193
C      -0.44115166     -0.98340924      0.06410605
C       1.00294406     -0.84135299     -0.00820109
C       1.72996471      0.27151404      0.05526330
F       3.08013816      0.20897688     -0.05443292
H      -3.28536861      0.22587468      0.63501291
H      -3.00727823     -1.17385406     -0.21555721
H      -1.70247808      1.80298572     -0.43109049
H      -0.81465322     -1.99483509      0.15001328
H       1.56253514     -1.76333163     -0.12333113
H       1.37482517      1.27973674      0.19194013
