13
b3lypvtz=-239643.09272964
C      -1.59558366     -0.30266306     -0.18505763
C      -0.50845981      0.46753860     -0.12247989
N       0.71963550      0.04626579      0.42127833
N       1.84443852      0.49880766     -0.20781655
C       2.93010291     -0.10675421     -0.04808510
F       4.04567661      0.39201113     -0.60459567
N      -2.90091598      0.14550891     -0.45522152
H      -1.53706470     -1.35234749      0.08495460
H      -0.51624418      1.51022819     -0.41271448
H       0.74065841     -0.91418105      0.74890145
H       3.12127129     -1.01773976      0.51421497
H      -3.40840065     -0.46261488     -1.08309419
H      -2.93511426      1.09594019     -0.79793308
