15
b3lypvtz=-191197.49561535
C       2.92430938     -0.58725552      0.94125960
C       2.16201670     -0.20700445      0.09538114
C       1.21640580      0.25775488     -0.92528087
C      -0.13711875     -0.41066821     -0.88801414
C      -1.17627125      0.02112533     -0.15270836
N      -1.10898754      1.00782878      0.82949590
N      -2.48162328     -0.46945602     -0.28935610
H       3.59616743     -0.93059562      1.68717687
H       1.10829943      1.34428192     -0.82702675
H       1.66963145      0.10221124     -1.90851011
H      -0.26315529     -1.30474739     -1.48322423
H      -1.84723339      1.69506525      0.77459362
H      -0.20142309      1.42215491      0.96472310
H      -2.90481030     -0.71599073      0.59587200
H      -2.55620729     -1.22470439     -0.95370897
