18
b3lypvtz=-181901.22100365
C      -2.33979743     -1.18342239     -0.33505069
C      -1.31411972     -0.82710731      0.42603918
C      -0.71206707      0.55215504      0.50781444
N      -1.35465216      1.48102417     -0.43963926
C       0.79941761      0.55673778      0.38187832
C       1.56728105     -0.42332948     -0.08477178
C       3.05408072     -0.34563431     -0.24978883
H      -2.72185308     -2.19579296     -0.31863240
H      -2.83642200     -0.47018608     -0.97871176
H      -0.85176375     -1.56229341      1.07672995
H      -0.95060245      0.93669588      1.50810607
H      -1.01325410      1.29273032     -1.37667102
H      -1.08715054      2.43414409     -0.22352160
H       1.26889399      1.49567190      0.66961021
H       1.10393233     -1.36002534     -0.38031699
H       3.44435683      0.62296499      0.06461963
H       3.34332553     -0.50727312     -1.29219498
H       3.55681425     -1.12083978      0.33538651
