16
b3lypvtz=-202059.61079445
N      -2.37029711      0.18101311     -0.11336564
C      -1.10729924      0.06063632      0.04004364
C      -0.35676196     -1.25703285      0.19561172
N       1.02994585     -1.26003513     -0.26912609
C       1.75131611     -0.09076341      0.22632226
C       1.08525432      1.22116237     -0.17602480
N      -0.33133388      1.19079846      0.17008533
H      -2.82037921     -0.73054705     -0.12552287
H      -0.35740276     -1.51111675      1.26123585
H      -0.90977472     -2.04099952     -0.32056372
H       1.04993478     -1.26834515     -1.28317727
H       2.77682315     -0.11621607     -0.14448317
H       1.79388393     -0.16108378      1.31689037
H       1.55492407      2.06025471      0.34224432
H       1.22959937      1.38239007     -1.25458839
H      -0.85533970      2.03687666     -0.00196054
