14
b3lypvtz=-203691.544067
C       2.23567791     -0.14985660     -0.56224995
C       1.12426257     -0.63834854     -0.03197482
C      -0.18372561      0.09533533      0.14694279
C      -0.10802041      1.51125886     -0.21132155
N      -0.09415325      2.61734120     -0.52860548
C      -1.32360566     -0.57917505     -0.66541536
O      -2.59385991     -0.03769145     -0.37818434
H       3.12082296     -0.76390203     -0.65728501
H       2.30569638      0.87287876     -0.91052891
H       1.09641887     -1.66749666      0.31069458
H      -0.48227089      0.04474876      1.19949708
H      -1.08258049     -0.52440700     -1.73143020
H      -1.36464674     -1.63029395     -0.38041935
H      -2.64991573      0.84950836     -0.74971946
