12
b3lypvtz=-200553.13107334
N      -2.31537837      0.13942688      0.00000165
C      -1.03834372      0.08158672      0.00000069
C      -0.18381948      1.25205804      0.00000157
C       1.16063242      1.12749517      0.00000073
N       1.83494926     -0.08182155      0.00000019
C       1.08586484     -1.12907688      0.00000022
N      -0.27468921     -1.10806390     -0.00000043
H      -0.77303102     -1.98525843      0.00000011
H      -2.74866615     -0.78249005      0.00000118
H      -0.66971953      2.21599796      0.00000249
H       1.79591243      2.00411046      0.00000133
H       1.53614352     -2.11629441     -0.00000171
