18
b3lypvtz=-181896.7171799
C       2.62794581     -0.34213627      0.19277254
C       1.45673233     -0.40125853     -0.43381767
C       0.27029992      0.42098723     -0.10871826
C       0.39947169      1.72894870      0.18262643
N      -0.95945420     -0.23494197     -0.24026213
C      -2.16347367      0.55854421     -0.10514458
C      -1.08467466     -1.57180087      0.32609449
H       3.46863208     -0.94010318     -0.13291662
H       2.78106022      0.30373588      1.04775857
H       1.33351013     -1.09154502     -1.26312771
H       1.36747943      2.19982830      0.11633629
H      -0.43797569      2.35534897      0.44685633
H      -2.33443799      0.91256973      0.92268197
H      -3.02091553     -0.04683746     -0.39940207
H      -2.11201297      1.42744700     -0.76022523
H      -0.18111032     -2.14910367      0.14868436
H      -1.92211194     -2.08989404     -0.14319980
H      -1.26036265     -1.54939701      1.41174608
