18
b3lypvtz=-205211.856494
C      -2.42572529     -0.43006098      0.13836263
N      -1.11915553     -0.01898478     -0.32902695
C      -0.59143508      1.18742805      0.30495016
C       0.86545405      1.22930734     -0.17163112
C       1.22869866     -0.24367915     -0.46285803
O       2.32331851     -0.63036004      0.36842276
C      -0.06986471     -1.01416184     -0.16105362
H      -2.43968036     -0.66349945      1.21763684
H      -3.15266304      0.36273486     -0.04570881
H      -2.75416866     -1.31838710     -0.40384513
H      -0.63592394      1.11441760      1.40590057
H      -1.17066617      2.06320606      0.00823602
H       1.54338755      1.63183917      0.57905310
H       0.96144973      1.83268798     -1.07335602
H       1.50787108     -0.36613604     -1.51290454
H       2.58036948     -1.52989720      0.14318746
H      -0.23536758     -1.86880893     -0.82103710
H      -0.00964070     -1.38654553      0.87767079
