15
b3lypvtz=-193624.4718326
C       1.79809801     -1.56016234     -0.00000091
C       0.94474670     -0.52130615     -0.00000244
C       1.58736331      0.82103962     -0.00000634
O       1.02731646      1.89105645     -0.00000322
C      -0.50401581     -0.71866146      0.00000114
C      -1.45320892      0.22240613     -0.00000240
C      -2.91749437     -0.07336404      0.00000172
H       2.86897443     -1.40347487     -0.00000402
H       1.45241686     -2.58542655      0.00000321
H       2.69560840      0.77040638     -0.00000393
H      -0.81282181     -1.76142218      0.00000736
H      -1.16243243      1.26421750     -0.00000838
H      -3.11930859     -1.14515043      0.00000872
H      -3.40307922      0.36810043      0.87517522
H      -3.40308203      0.36808951     -0.87517573
