17
b3lypvtz=-240994.43677248
C       0.43814402     -1.17620854     -0.95715889
C      -0.09186640     -0.57972644      0.34908841
C      -1.50573407     -0.02241335      0.21185122
O      -1.49187926      1.08157505     -0.70936023
C       0.85371554      0.47666310      0.94185762
O       2.06205039     -0.15519114      1.27627609
O       1.15190703      1.53282321      0.05183561
H       1.44332634     -1.56655542     -0.81123091
H      -0.20479577     -1.99222590     -1.29208877
H       0.47621255     -0.42782012     -1.74656381
H      -0.15256496     -1.37300858      1.10082686
H      -1.87154164      0.31201635      1.18900351
H      -2.17648508     -0.80587150     -0.15440443
H      -2.36978967      1.46883732     -0.75489685
H       0.39379977      0.89418672      1.85347684
H       2.72201745      0.53771338      1.38859376
H       0.32318374      1.79520586     -0.37490603
