21
b3lypvtz=-195906.47497536
C      -2.95955704     -0.60444440     -0.58073230
C      -1.52731349     -0.79530280     -0.08295904
C      -0.76174526      0.52150083      0.04603213
C       0.67453770      0.36671580      0.53721428
C       1.34596053      1.71796151      0.77632833
O       1.37385274     -0.39828422     -0.44699328
C       2.55909701     -1.01633530      0.00616104
H      -2.97455427     -0.13185673     -1.56545590
H      -3.48199525     -1.55881657     -0.66449592
H      -3.53566329      0.03012020      0.09704349
H      -0.98419328     -1.45485658     -0.76147565
H      -1.54411015     -1.29792508      0.88971973
H      -1.28982526      1.18826885      0.73468061
H      -0.73563378      1.02979328     -0.92324264
H       0.66851994     -0.20274033      1.47907135
H       0.81389202      2.27850331      1.54687109
H       2.37842712      1.60348068      1.10637091
H       1.34427736      2.30696131     -0.14218738
H       3.33401894     -0.29167553      0.28021005
H       2.93374820     -1.62756399     -0.81330260
H       2.36825951     -1.66350423      0.87162227
