12
b3lypvtz=-223798.30886674
C       1.22961846      1.30918687     -1.02839794
N       0.65896601      0.25594611     -1.42357934
C       0.42010913     -0.81622817     -0.54790850
N       1.07328677     -1.91057003     -0.56126043
C      -0.71703907     -0.71422429      0.38276022
N      -1.35055465      0.38032033      0.52307110
O      -2.36758052      0.26413550      1.46295645
H       1.56673699      1.46922666     -0.00121020
H       1.40719497      2.11052385     -1.74185636
H       1.81686588     -1.87549162     -1.25895252
H      -0.96656247     -1.61177634      0.94194602
H      -2.77084150      1.13895115      1.45823152
