19
b3lypvtz=-192726.69532725
C       2.56972136     -0.79270149     -0.16573277
N       1.29438465     -0.37319793     -0.73658730
C       0.43082996      0.30718244      0.18836771
C      -0.43399887     -0.54387353      1.09767390
C      -1.05423529      0.24357100     -0.04245120
C      -1.88950463      1.45666391      0.29296735
N      -1.49249827     -0.42035745     -1.25017399
H       3.17640726     -1.26675177     -0.93786046
H       2.39077602     -1.52791316      0.61999420
H       3.15202486      0.03042137      0.27429473
H       1.45098008      0.20741341     -1.55174631
H       0.80997334      1.23313566      0.62459022
H      -0.35481104     -1.61463839      0.96529045
H      -0.58659884     -0.21576859      2.11759267
H      -1.89921944      2.15364586     -0.54668884
H      -2.92351091      1.16837830      0.50141601
H      -1.50698985      1.97267627      1.17460596
H      -2.34988912     -0.93488241     -1.08153789
H      -0.78384127     -1.08290350     -1.54431445
