17
b3lypvtz=-171056.20029331
C      -2.15860890     -1.35394945     -0.00012252
C      -1.38933669     -0.42916191      0.00006068
C      -0.44397391      0.64315553     -0.00002397
C      -0.86100303      1.91397176      0.00002606
C       1.03290551      0.27164108     -0.00001684
C       1.41791094     -0.50503346      1.26680863
C       1.41811892     -0.50497193     -1.26682562
H      -2.84941707     -2.15969962      0.00012898
H      -0.15080546      2.73052946      0.00002834
H      -1.91214657      2.16616957      0.00006785
H       1.58390661      1.21554202      0.00001606
H       1.18708223      0.06691787      2.16640290
H       0.88080833     -1.45305804      1.32321673
H       2.48726193     -0.72339227      1.26715682
H       2.48748479     -0.72325485     -1.26705303
H       0.88114462     -1.45305861     -1.32338061
H       1.18733676      0.06700884     -2.16641046
