14
b3lypvtz=-203617.7669122
C      -0.84323319      1.28203578      0.08317041
C      -0.66260469     -0.00639114      0.92319596
C       0.49033480     -0.37096516     -0.02221638
C      -0.64803094      0.12337272     -0.92554581
N      -1.62770546     -0.66949222     -0.05994173
C       1.94329284     -0.39348412     -0.01198218
O       1.14814939     -1.61005024     -0.10392321
H      -1.84917919      1.69212185      0.10412875
H      -0.06247534      2.03784078      0.14218019
H      -0.74876292     -0.13834504      1.99898911
H      -0.71719779      0.14314805     -2.01044898
H      -1.40709391     -1.66522660     -0.12811003
H       2.49974801     -0.14791577     -0.91059129
H       2.48475837     -0.27664889      0.92109518
