14
b3lypvtz=-180298.81754255
C       1.96432266      0.09607197      0.00055880
C       0.48018758      0.05205101     -0.00654917
C      -0.54839283     -0.54187339      0.91890569
C      -0.52972506     -0.90878004     -0.57571823
C      -1.44368156      0.30396969     -0.85573232
C      -1.46169263      0.65739277      0.58391130
N      -0.41731161      1.26277313     -0.31492393
H       2.34866945      0.39260184     -0.97788003
H       2.37336824     -0.88657671      0.24452892
H       2.32847308      0.81124777      0.74145128
H      -0.44262566     -1.18872358      1.77589772
H      -0.40740410     -1.87829300     -1.03300782
H      -2.10425932      0.56559022     -1.67028518
H      -2.13992821      1.26254829      1.16884301
