17
b3lypvtz=-240986.03109482
C       2.76668454     -0.40432069      0.01763592
C       1.32530560     -0.26008966      0.46301616
O       0.56076848      0.17010630     -0.66729427
C      -0.74432292      0.62114579     -0.42347164
O      -0.76696132      1.85202802      0.27720346
C      -1.61851691     -0.31882745      0.39810599
O      -1.61569845     -1.59219602     -0.23073849
H       3.38364332     -0.76136942      0.84405860
H       2.84380682     -1.11763338     -0.80334022
H       3.16477470      0.55236700     -0.32228742
H       0.93981831     -1.21945393      0.82056697
H       1.24226432      0.47150699      1.27167247
H      -1.17141602      0.73122563     -1.42411787
H      -0.29155959      2.49883778     -0.25420185
H      -1.23684862     -0.36751857      1.42324312
H      -2.62188587      0.11599982      0.43470791
H      -2.22662039     -2.16592619      0.23897417
