14
b3lypvtz=-224616.30157737
N       1.32508232      1.31414198     -0.00698382
C       1.28872973      0.04032849      0.00150198
N       2.38512466     -0.79514553     -0.07864588
C      -0.01603917     -0.72765264      0.05302660
C      -1.31858182      0.03877710      0.00878089
N      -1.54997266      1.27261809     -0.04543888
O      -2.34724699     -0.85862137      0.04037841
H       2.27685628      1.67508729     -0.04429028
H       2.28073566     -1.75738657      0.19604652
H       3.29244973     -0.39754708      0.09951884
H      -0.02716113     -1.33566058      0.96370211
H      -0.02878730     -1.44859512     -0.76943187
H      -0.66962420      1.78816143     -0.05737421
H      -3.15605110     -0.32731049      0.01357658
