13
b3lypvtz=-213765.11018987
C       3.32241670     -0.41333346     -0.24832656
C       2.24329231      0.05116875     -0.00950186
C       0.93532793      0.61331641      0.31118096
N      -0.12347127     -0.37429587      0.14297832
C      -1.42376058      0.05172661     -0.01133685
N      -2.36122188     -0.96917514      0.02514478
O      -1.72839053      1.22218519     -0.15233473
H       4.27923557     -0.81604488     -0.46918528
H       0.95369756      1.01759495      1.33010166
H       0.70463639      1.45091637     -0.34712606
H       0.03680764     -1.27879272      0.55484005
H      -3.27233639     -0.67574150     -0.28750814
H      -2.08175845     -1.88019970     -0.30156030
