13
b3lypvtz=-190448.95649415
C       0.21752784      1.55233620      0.00205648
C      -1.06329461      1.15142991      0.00044834
N      -1.56141552     -0.12974697     -0.00291066
C      -0.80067886     -1.31315189      0.00033467
C       0.52385371     -1.47212112      0.00127312
N       1.60254722     -0.54174852     -0.00213437
C       1.43707086      0.71910391     -0.00134356
H       0.38509496      2.62043381      0.00464935
H      -1.84204531      1.90468930      0.00168204
H      -2.55799208     -0.23446321     -0.00338269
H      -1.41608511     -2.20319550      0.00235523
H       0.86703712     -2.49805400      0.00443204
H       2.35888778      1.30307508     -0.00405600
