16
b3lypvtz=-204444.46967395
C      -2.52045221      0.23147188     -0.49063019
C      -1.31598309     -0.32243966     -0.44332008
C      -0.44778467     -0.37536911      0.78450801
C       0.83464544      0.43001199      0.66060657
N       1.19296641      1.36853397      1.43437478
C       1.74870343      0.10153047     -0.49923757
O       1.73123458     -1.30580021     -0.73519411
H      -3.10575422      0.23411456     -1.40071500
H      -2.96919161      0.69742439      0.37913113
H      -0.90214139     -0.78740076     -1.33153469
H      -0.16206581     -1.41622741      0.96650342
H      -1.00028687     -0.01963503      1.65596539
H       0.48459429      1.54648503      2.14765860
H       2.74854211      0.46673798     -0.25781545
H       1.38733760      0.64706240     -1.38141182
H       2.29573600     -1.49660049     -1.48888898
