18
b3lypvtz=-181905.2497839
C       3.09990641      0.98209572      0.13104265
C       2.31547222      0.08338773     -0.44797163
C       1.35186280     -0.80658902      0.28395880
N       0.03475751     -0.76533011     -0.33863782
C      -0.95624981     -0.44295896      0.37336774
C      -2.35223344     -0.36305546     -0.16708113
C      -2.95612987      1.03944698     -0.01621972
H       3.79108100      1.58484962     -0.44344351
H       3.08379478      1.14589998      1.20248427
H       2.34223675     -0.05184085     -1.52427609
H       1.70597347     -1.84149123      0.20833891
H       1.32506906     -0.54276702      1.35062925
H      -0.83786053     -0.19040628      1.43962127
H      -2.33527945     -0.66955180     -1.21286338
H      -2.97564939     -1.08064876      0.37757180
H      -2.38438734      1.77321415     -0.58585259
H      -3.98488557      1.05818501     -0.37726198
H      -2.96471260      1.35901532      1.02788716
