13
b3lypvtz=-237059.39460939
C       2.83417494     -0.41019257      0.39509945
O       2.10392675      0.70257260     -0.14621411
C       0.80490202      0.52062328     -0.37286948
N       0.20979254     -0.57943782     -0.13843291
N      -1.17075476     -0.56088196     -0.37237183
C      -2.04963304      0.26476643      0.27756762
O      -3.25180193      0.13317713      0.24554540
H       2.39601256     -0.72702396      1.34090738
H       2.82162462     -1.24898124     -0.29983491
H       3.84754725     -0.04851183      0.53972826
H       0.33520994      1.41324544     -0.77952555
H      -1.53785642     -1.45232995     -0.67060249
H      -1.53617346      1.07416143      0.82469717
