19
b3lypvtz=-171844.73390026
C      -2.69397622      0.33724095     -0.28613205
C      -1.79647701     -0.49412820      0.23012504
C      -0.34152896     -0.21873192      0.46517460
C       0.60326982     -1.22092782     -0.23457236
C       1.99786285     -0.56474577     -0.15551713
C       1.74129055      0.95613819      0.05148302
C       0.21147410      1.13397510      0.00154415
H      -2.44110975      1.34440536     -0.59181161
H      -3.72495546      0.03629945     -0.41875537
H      -2.12442940     -1.48890632      0.52299229
H      -0.16162137     -0.30643335      1.54599213
H       0.28910301     -1.33050976     -1.27571479
H       0.57410082     -2.21338596      0.21723549
H       2.56720273     -0.97178895      0.68122645
H       2.58174466     -0.76198177     -1.05462937
H       2.24531960      1.56628944     -0.69798502
H       2.12528929      1.27390041      1.02227473
H      -0.11246235      1.32186225     -1.02571607
H      -0.13690892      1.96967468      0.60947288
