11
b3lypvtz=-212988.25530607
N      -2.67153636      0.28797327     -0.00000073
C      -1.65998633     -0.47902299     -0.00000473
C      -0.25107536     -0.08666505     -0.00001193
C       0.41268752      1.10432268      0.00001507
C       1.77538531      0.72709122     -0.00003719
N       1.93001540     -0.57242161      0.00001510
O       0.64578061     -1.09680927      0.00001759
H      -2.39928578      1.27298094      0.00001577
H      -1.82741093     -1.55590744     -0.00001063
H       0.00062177      2.09730781      0.00002786
H       2.65055914      1.35747943     -0.00004119
