17
b3lypvtz=-191984.63285056
C       1.90947734     -0.62115993     -0.80642316
C       1.18581428     -0.14370820      0.45113630
C      -0.10005204     -0.94778989      0.73766006
C      -1.17994537     -0.17367808      0.01137312
N      -2.31441423     -0.65015695     -0.28254162
C      -0.60988637      1.21359409     -0.29113409
N       0.73573728      1.26282344      0.29386260
H       2.75775953      0.02739608     -1.02342849
H       1.24686716     -0.61097317     -1.67477792
H       2.27202288     -1.64291300     -0.67994820
H       1.87978182     -0.18673717      1.29107104
H      -0.07375393     -1.98914013      0.42091565
H      -0.32386409     -0.93543811      1.80876152
H      -2.88844492      0.04035981     -0.77081709
H      -1.24590735      2.00535242      0.10721593
H      -0.56780232      1.35396458     -1.37616129
H       0.68650234      1.69591724      1.20687164
