12
b3lypvtz=-226239.55950007
C      -0.59151941     -1.71603620     -0.11404568
C      -0.88693351     -0.40788027      0.00523486
N      -2.15553937      0.11648966      0.15021879
C       0.16853638      0.63290327     -0.01666793
O      -0.11739665      1.81746859     -0.06215197
C       1.67657271      0.33678787      0.00973326
O       2.21756566     -0.70810376      0.24672903
H      -1.37571050     -2.46155490     -0.14403134
H       0.42948920     -2.04974525     -0.15785182
H      -2.23312256      1.09711195     -0.07059336
H      -2.92502003     -0.45319439     -0.15726428
H       2.23958708      1.26959943     -0.18641257
