19
b3lypvtz=-192748.92016287
C       2.24090436     -0.47055584      0.62713698
C       1.42361364     -0.12198302     -0.61755343
N       0.09918751      0.42756327     -0.32976523
C       0.04452977      1.82956011      0.03881065
C      -0.93185217     -0.44886794     -0.06903006
C      -2.27413895      0.16332366      0.27509120
N      -0.72229742     -1.71332149     -0.14806737
H       2.40319410      0.40229203      1.26282143
H       3.22024555     -0.85693051      0.33810735
H       1.73039719     -1.23745685      1.20796453
H       1.27878756     -1.01720349     -1.21749712
H       1.95516270      0.61486535     -1.22451372
H       0.75899191      2.38224261     -0.57186724
H      -0.93934378      2.25160906     -0.14982129
H       0.29590404      2.01236769      1.09143792
H      -2.61986420      0.84321652     -0.50565825
H      -3.01227572     -0.62659492      0.39136781
H      -2.23200011      0.72874578      1.20792661
H      -1.58407999     -2.22463903      0.00710922
