13
b3lypvtz=-213732.6020804
N      -2.80062229     -0.29555215      0.18218575
C      -1.63222134     -0.65680664     -0.14194440
C      -0.37702628      0.17076618     -0.07235758
N      -0.34421837      1.43919983     -0.09343748
C       0.90111246     -0.60488229      0.01804123
C       2.07666107     -0.04229123      0.70159947
O       2.02447163     -0.11088899     -0.71605769
H      -2.81089986      0.66664180      0.53500684
H      -1.50510900     -1.67833344     -0.50450565
H      -1.27965730      1.83925107     -0.18972404
H       0.79424592     -1.68501683     -0.01294410
H       2.78234667     -0.71455235      1.17934456
H       1.99007270      0.95639405      1.11442810
