17
b3lypvtz=-194360.64662008
C       1.82357201      0.12338893     -0.62418009
C       0.56709385      0.18148906      0.23096825
C      -0.17731802     -1.19867602      0.34827432
C      -1.34549347     -0.60218482     -0.43729376
C      -0.64005664      0.75511768     -0.50591277
C      -1.89681792      0.58246267      0.29271428
O       0.82127428      0.87124840      1.45229492
H       2.19745949      1.13202804     -0.80799990
H       1.62794587     -0.35488932     -1.58469442
H       2.60789793     -0.44827644     -0.11962982
H      -0.40821947     -1.51747706      1.36627893
H       0.34662912     -2.00043211     -0.17123602
H      -1.89548448     -1.10433053     -1.21983625
H      -0.57666975      1.45308152     -1.32974242
H      -2.77678070      1.03524746     -0.14503579
H      -1.85816163      0.62524605      1.37424400
H       1.58312952      0.46695646      1.88078654
