15
b3lypvtz=-237830.2511113
C       1.70300644     -0.31511945      0.04994969
C       0.22735966     -0.63830370     -0.10474394
N      -0.30616874     -1.67178584     -0.61194095
O      -0.53072805      0.36891228      0.37945539
C      -1.96153352      0.21874852      0.27233310
O      -2.55377025      1.37077973      0.76254699
N       2.14520077      0.93235113     -0.56932244
H       2.28282272     -1.14170332     -0.36220094
H       1.92983430     -0.26284507      1.11797760
H       0.40542887     -2.32306757     -0.93038740
H      -2.25057957     -0.68437138      0.81433983
H      -2.23439650      0.11960774     -0.77612595
H      -2.43318122      1.40470428      1.71703517
H       1.61400758      1.70849209     -0.19264488
H       1.96269751      0.91360058     -1.56627128
