17
b3lypvtz=-217673.18298096
C      -3.19683795     -0.78809788      0.06350565
C      -2.01625915     -0.32348645     -0.31717736
O      -1.36998499      0.66867338      0.36649793
C      -0.10548005      1.01617367     -0.11118889
O       0.80892475     -0.00045752      0.21066187
C       2.12779755      0.26989365     -0.24631649
C       3.02417001     -0.88148263      0.16025989
H      -3.69286609     -0.41533794      0.94826177
H      -3.67898664     -1.56064648     -0.51511406
H      -1.49304839     -0.69691590     -1.19094528
H      -0.12914443      1.17022087     -1.20188498
H       0.15964026      1.95536737      0.38489331
H       2.12742542      0.39407408     -1.33787358
H       2.48783762      1.21146010      0.18975653
H       3.03386012     -0.99436492      1.24424695
H       4.04556676     -0.70302351     -0.17896924
H       2.67205818     -1.81514888     -0.27844701
