10
b3lypvtz=-199744.27758639
C      -2.92288215     -0.02025460     -0.00004621
C      -1.72247165     -0.03176831     -0.00004763
C      -0.30739884     -0.00013902     -0.00004750
N       0.45061310     -1.10690825     -0.00002467
N       1.67943643     -0.62786345      0.00001813
H       2.48032800     -1.23739984      0.00009272
N       1.80957723      0.69122398     -0.00006123
C       0.55381115      1.11820175     -0.00000818
H      -3.98429441     -0.01854840     -0.00003017
H       0.31279114      2.16630314      0.00004674
