12
b3lypvtz=-226231.02466842
C      -0.62322835     -1.03438997     -0.29936221
C      -0.99099584      0.42828186     -0.26749958
N      -2.10014074      0.84477182     -0.68946611
O      -0.06139374      1.25057272      0.31564984
C       1.21394775      0.74037886      0.50743618
C       1.59714127     -0.42789072      0.00667641
O       0.74220437     -1.24891637     -0.66865270
H      -1.24487082     -1.54508903     -1.02621282
H      -0.79543175     -1.46261669      0.69544169
H      -2.19527897      1.85037873     -0.54787948
H       1.85189193      1.40574852      1.06306397
H       2.60615488     -0.80122974      0.08819660
