16
b3lypvtz=-202035.67338507
C      -2.83258731      0.00512208     -0.52264084
N      -2.02072943     -0.95985100      0.18677436
C      -0.65067164     -0.89093251      0.18114143
C       0.10801385      0.12532280     -0.27984715
C       1.54534043      0.11606296     -0.17751467
N       2.26523304      1.08123239     -0.60949978
N       3.63998657      0.93483763     -0.53689274
H      -3.88158629     -0.26460479     -0.41773594
H      -2.58689463      0.05930298     -1.59027354
H      -2.69585005      1.00137938     -0.09710399
H      -2.41149180     -1.87995442      0.28466367
H      -0.17081890     -1.75177546      0.63450816
H      -0.33652428      0.99470198     -0.74568470
H       2.01081223     -0.76476393      0.28645516
H       3.95145973      0.34609001      0.23389875
H       4.06630849      1.84782991     -0.47334537
