11
b3lypvtz=-264611.03648848
N      -1.15210137      1.52378087     -0.31237199
C      -1.10775281      0.30405245     -0.04726984
F      -2.26461481     -0.43278991      0.17718783
C       0.06201805     -0.56047871      0.07853613
O      -0.14427200     -1.89011779      0.38106800
C       1.33414682     -0.15827761     -0.07874250
O       1.69673683      1.11109547     -0.37652358
H      -2.10593156      1.87561184     -0.33767859
H      -1.09216311     -2.03485272      0.46435897
H       2.11939969     -0.89539736      0.04004085
H       2.65453428      1.15737349     -0.43880529
