17
b3lypvtz=-215288.47132773
C       1.81323066     -1.36718728     -0.21407825
C       1.21884811      0.00196080     -0.02218953
N       1.83137318      1.01955483      0.42546717
C      -0.23956357      0.20415466     -0.40124062
O      -0.61769558      1.55452255     -0.24489859
C      -1.18346371     -0.68307420      0.41874616
N      -2.55099874     -0.47724691     -0.05079725
H       2.89843141     -1.33864301     -0.12257965
H       1.42485355     -2.06180503      0.53397398
H       1.55190314     -1.77406739     -1.19268495
H       2.80558914      0.82753378      0.64982896
H      -0.35735023     -0.07726435     -1.45696159
H       0.16495325      1.99887278      0.12579874
H      -0.92422638     -1.73435812      0.27330159
H      -1.02942981     -0.44157564      1.48114208
H      -2.78057661      0.50670372      0.03358571
H      -3.20629880     -0.98839319      0.52759704
