17
b3lypvtz=-191968.67683459
C       1.97003518      0.61647255      0.46794122
C       0.65759584     -0.05609036      0.17691034
C      -0.51885434      0.17833338      1.11501953
N      -1.65697007     -0.38616483      0.38091852
C      -1.43305564     -0.11734860     -1.04579828
C       0.07072439     -0.25341204     -1.17377166
N       0.70667244     -1.37640795     -0.46970647
H       2.38393710      0.26810665      1.41763262
H       2.69331638      0.38686410     -0.31322981
H       1.85368659      1.70102121      0.52968114
H      -0.60104710      1.26034903      1.30265699
H      -0.40404090     -0.31992143      2.08198760
H      -2.55264592     -0.06181041      0.71529919
H      -1.99226488     -0.83004068     -1.65800101
H      -1.72138948      0.89727231     -1.36212921
H       0.55533707      0.07541972     -2.08428623
H      -0.01103665     -1.98264263     -0.08112448
