12
b3lypvtz=-200511.2580815
C      -0.09197280      0.49437677      1.40788867
C       1.12571487     -0.08159229      0.73511987
N      -0.18082177     -0.72449277      0.64499812
C      -0.90847918     -0.83007885     -0.55401995
N      -2.09070732     -0.44191059     -0.76937682
C       1.68391588      0.60218298     -0.40625522
N       2.15247455      1.12657406     -1.31760368
H      -0.18194427      0.40076628      2.48240201
H      -0.51098880      1.39532525      0.97326969
H       1.85913914     -0.61092257      1.33120297
H      -0.37279171     -1.38352384     -1.32263412
H      -2.48353856      0.05329556      0.03286550
