10
b3lypvtz=-220648.84268274
N       1.44123129     -1.48069256      0.00006433
C       0.73045103     -0.43961271      0.00013757
N       1.20262068      0.91473421     -0.00021725
N       0.21774165      1.69552995      0.00001914
N      -0.96298670      1.00713648      0.00003193
C      -0.76861977     -0.36886893     -0.00005432
N      -1.58792052     -1.33393029     -0.00006836
H       2.43047762     -1.22345340      0.00005403
H      -1.82277876      1.52787657     -0.00017237
H      -2.55866852     -1.02159331     -0.00003970
