14
b3lypvtz=-203710.15348796
N       2.16740397      0.28013582     -0.29222140
C       0.79135113      0.16950665     -0.16176289
C      -0.15331096      1.04926803     -0.52645786
C      -1.53133979      0.62207516     -0.10697484
C      -1.28955321     -0.72638346      0.57558945
O      -2.13168441     -1.44395427      1.04746693
C       0.21428594     -1.01700029      0.55815424
H       2.48549243      0.98249411     -0.94256559
H       2.66306220     -0.59050358     -0.40515482
H       0.04470094      1.97623886     -1.04749912
H      -2.23699483      0.48775136     -0.93390803
H      -2.02101330      1.30094377      0.60061895
H       0.40624046     -1.97033162      0.05451166
H       0.59115944     -1.12034054      1.58040331
