14
b3lypvtz=-203695.31005256
C       1.24123465     -1.72768522      0.07384122
C       0.26405992     -0.82432728      0.17527113
C       0.21889021      0.54706742     -0.35300776
C      -0.96789139      1.08520113     -0.03319612
C      -1.76852580      0.08055236      0.72809345
O      -0.90850529     -1.06829472      0.83433843
N       1.26100651      1.06331165     -1.10245310
H       2.13647458     -1.50437847     -0.48514743
H       1.14762143     -2.70553376      0.52053661
H      -1.31965321      2.07752820     -0.26980511
H      -2.03479393      0.40740144      1.73918336
H      -2.69085849     -0.22705775      0.22243832
H       1.24662677      2.06426597     -1.21804746
H       2.17431402      0.73194902     -0.83204552
