16
b3lypvtz=-204413.89497765
N       1.82531073     -1.02225450      0.58179652
C       1.31650599      0.01760277     -0.31750070
C      -0.18012488      0.10414363     -0.26117136
C      -1.14468079     -1.07761376     -0.28481585
O      -2.04206269     -0.41599436      0.66170800
C      -1.13140435      0.68081672      0.76433677
C      -0.96720406      1.36395847     -0.55437481
H       2.82271703     -1.14521961      0.45878059
H       1.67456525     -0.75864267      1.54876627
H       1.72964105      1.01803205     -0.12318698
H       1.62292867     -0.24829288     -1.33445954
H      -0.72390604     -1.97866100      0.15935824
H      -1.64007971     -1.30732172     -1.23135070
H      -0.99045447      1.14103419      1.73332330
H      -0.38291627      2.27597748     -0.53968451
H      -1.78883545      1.35243519     -1.26152526
