14
b3lypvtz=-201281.48654683
C       1.62627060      1.50007252      0.30122421
N       0.73973252      0.84457878     -0.31960131
C       0.60567543     -0.53278621     -0.07735939
C       1.64284248     -1.38411354     -0.14354614
N      -0.69624753     -0.97002233      0.16484642
C      -1.90915378     -0.28493643      0.12951845
N      -2.18449727      0.91537360     -0.16054507
H       2.25941683      1.05944547      1.07569454
H       1.77076021      2.54910605      0.05766775
H       2.63121259     -1.02400796     -0.37617709
H       1.50275822     -2.45078704     -0.04106803
H      -0.77482095     -1.95887405      0.33446805
H      -2.72209496     -0.95574238      0.41067643
H      -1.35288038      1.43825053     -0.42608884
