15
b3lypvtz=-191233.28916362
C      -1.74053363     -0.14386081      0.33751147
C      -0.46333142      0.26818915     -0.40462063
C       0.29024272      1.42115762      0.22037914
C       1.53881045      1.02854986      0.48102164
N       1.74713892     -0.29438565      0.09107602
C       0.59441565     -0.85163756     -0.43237534
N       0.53375184     -2.06172166     -0.81969102
H      -1.52386726     -0.38176653      1.37919467
H      -2.47287983      0.66430019      0.31749788
H      -2.19557083     -1.02143840     -0.12522604
H      -0.72682652      0.50218386     -1.44232551
H      -0.12197702      2.39779695      0.41081523
H       2.34888769      1.58801492      0.92167142
H       2.58403415     -0.82979149      0.23792465
H      -0.39229490     -2.28559043     -1.17285356
