8
b3lypvtz=-222241.8326295
C       0.61943444      0.00475485     -0.04721932
C      -0.57887265     -0.00546893     -0.04850862
C      -1.99026564      0.00764100     -0.05000870
N      -2.75569814     -1.04985883     -0.05175053
O      -4.01033473     -0.56881513     -0.05266706
N      -3.95306226      0.84441464     -0.05137079
N      -2.75400775      1.17323203     -0.04979689
H       1.68170672      0.00950038     -0.04607810
