13
b3lypvtz=-239683.10761572
C      -2.96509286      0.21404948      0.00006776
N      -1.51868692      0.28543183      0.00012365
C      -0.86999624     -0.79785249     -0.00015815
N       0.51106927     -0.86946960     -0.00010707
C       1.38133035      0.20993956     -0.00002610
N       1.18306194      1.43826391      0.00013896
F       2.64229787     -0.27924672     -0.00028692
H      -3.35583322      0.73234303     -0.87760880
H      -3.35587308      0.73178117      0.87805888
H      -3.35216184     -0.81376788     -0.00027007
H      -1.33759809     -1.78815371     -0.00042071
H       0.93392243     -1.78193658     -0.00052816
H       0.18206639      1.62690500      0.00028172
