14
b3lypvtz=-224624.395866
C       0.73885625     -0.83451842     -0.29049547
C       2.00263831     -0.27566797      0.28855783
N       2.00654875      0.80024752      0.95506161
N      -0.39703929     -0.01329802      0.04460561
C      -1.51720695     -0.03617483     -0.74685414
O      -1.67418825     -0.83073539     -1.65881933
N      -2.45365291      0.93868856     -0.43664148
H       0.84746706     -0.92631585     -1.37692686
H       0.61778675     -1.86183173      0.07576950
H       2.89940385     -0.87143957      0.09154722
H       2.93935762      1.04685418      1.27867715
H      -0.16532612      0.81865425      0.56877280
H      -2.49390576      1.27119255      0.51309826
H      -3.35073933      0.77434474     -0.86251356
