17
b3lypvtz=-191987.79100534
C      -1.55083238      1.30851837     -0.33259077
C      -1.29123384      0.00813303     -0.10699163
C      -2.40833563     -0.91775508      0.31806822
C       0.00776946     -0.63531027     -0.25055108
C       1.22978157     -0.09549420     -0.01829017
N       2.40089313     -0.86094175     -0.01659283
N       1.48070185      1.23427069      0.28679799
H      -0.82103400      1.98669462     -0.75267475
H      -2.54051512      1.71242691     -0.16558393
H      -2.19944768     -1.36459261      1.29332551
H      -3.36462936     -0.39877003      0.36982824
H      -2.50889136     -1.74370704     -0.39190163
H      -0.00606047     -1.69213557     -0.49298238
H       2.26302836     -1.80277375     -0.34923259
H       3.16847510     -0.41609297     -0.50193090
H       2.22478300      1.34560578      0.96229547
H       0.65174138      1.75230287      0.54415022
