15
b3lypvtz=-216874.37950377
C       2.48698478      0.10542631      0.16459924
O       1.36257534     -0.76113574      0.11471836
C       0.17290016     -0.13294132      0.47166504
C      -0.59709407      0.53871084     -0.62742824
O      -1.74618988      1.20595958     -0.09647551
C      -2.28765890     -0.07452372      0.35700461
C      -1.04133102     -0.80984718     -0.10191234
H       3.35338231     -0.48255419     -0.13115340
H       2.37310502      0.95251754     -0.51923209
H       2.64440662      0.49107036      1.17787100
H       0.14614033      0.29901764      1.47295329
H      -0.18855848      0.85586434     -1.57674676
H      -3.18213909     -0.32803895     -0.21472685
H      -2.51408848     -0.06973362      1.42583809
H      -0.98253464     -1.78979188     -0.54907445
