11
b3lypvtz=-210581.93077701
N      -2.44666564     -0.40636381     -0.00020083
N      -1.64972267      0.54914014      0.00032094
C      -0.28239304      0.20451739      0.00007197
N       0.20764551     -1.03695535      0.00001574
N       1.52893038     -0.85962625     -0.00000029
H       2.12572627     -1.66945922      0.00020278
C       1.90797288      0.44539967     -0.00019561
C       0.74478937      1.17444629     -0.00013896
H      -3.38755937      0.01116821     -0.00016412
H       2.94366750      0.73730165     -0.00031537
H       0.62759782      2.24292229     -0.00026025
