11
b3lypvtz=-210574.26387254
C       2.15269660     -0.25831985     -0.12176935
C       0.83466847     -0.04400813     -0.05148902
N      -0.09272635     -1.09337702      0.08477277
C      -1.31789252     -0.74624350      0.13978951
N      -1.72542470      0.55580824      0.07246388
N      -0.81997551      1.60072355     -0.06210271
N       0.38689860      1.31438700     -0.12013525
H       2.54292848     -1.26286561     -0.07463996
H       2.82844697      0.57566791     -0.22594015
H      -2.10432436     -1.48921873      0.24488458
H      -2.68539567      0.84734614      0.11416572
