16
b3lypvtz=-204453.59689338
C      -2.90878486     -0.26823932      0.13269229
N      -1.65885634      0.13386727     -0.48243854
C      -0.59818485      0.02952833      0.19113859
C       0.73085172      0.45058953     -0.37013035
C       1.26445726      1.72675315      0.31467327
C       1.77582189     -0.64240326     -0.26665900
O       1.61935080     -1.71150181      0.26289787
H      -2.79659545     -0.63297380      1.16190871
H      -3.36691756     -1.05229573     -0.47312387
H      -3.59786326      0.57864994      0.12807492
H      -0.59088374     -0.35487169      1.21943784
H       0.59742755      0.66255089     -1.43586629
H       0.59242398      2.56223753      0.12423349
H       2.25283555      1.99087167     -0.06554741
H       1.34368195      1.58793836      1.39422296
H       2.75277035     -0.37609707     -0.72509447
