11
b3lypvtz=-238706.38234879
C      -1.19780208      1.04157748     -0.03685156
C      -0.84215892     -0.26689346      0.01942182
C       0.58745860     -0.29533839      0.00828765
C       1.00627206      0.99455077     -0.05382294
O      -0.07731694      1.82395535     -0.08203421
O       1.26161562     -1.48254170      0.05620310
O      -1.66307370     -1.34878376      0.07572908
H      -2.14625536      1.54413328     -0.05144402
H       1.97520781      1.45865570     -0.08323437
H       2.21071487     -1.32849083      0.04122412
H      -1.11466195     -2.14082444      0.10652134
