17
b3lypvtz=-171059.48236866645
C       2.63384817     -0.20622088      0.33440676
C       1.50012947      0.29833546     -0.56957821
C       0.32127422      0.81316295      0.20088522
C      -0.91248428      0.32058505      0.14477410
C      -1.59770492     -0.82561971     -0.63111430
C      -2.84263589     -0.36927714      0.12183069
C      -2.20398438      0.61750814      0.77510550
H       2.98861985      0.58510158      0.99783990
H       2.29586452     -1.03487943      0.95822196
H       3.48353479     -0.55033809     -0.25791382
H       1.18048328     -0.50093736     -1.24170227
H       1.89283158      1.09930151     -1.20601866
H       0.50619345      1.65226351      0.86750636
H      -1.62705951     -0.70392890     -1.71610006
H      -1.23975706     -1.83007521     -0.39466586
H      -3.86292646     -0.72406804      0.11861954
H      -2.51622685      1.35908657      1.49790314
