18
b3lypvtz=-181851.23168505
N      -1.67578977     -1.17983258     -0.42222408
C      -0.98201649     -0.32457982      0.53058289
C      -0.90960170      1.24770332      0.17115159
C       0.58946440      1.57204874     -0.26179986
C       1.06598076      0.15827913     -0.55761162
C       1.78793328     -1.04926410      0.01439081
C       0.51925196     -0.56033518      0.66260605
H      -2.66202244     -0.95013158     -0.44480239
H      -1.32697692     -1.04179848     -1.36342530
H      -1.48421733     -0.45904735      1.49046130
H      -1.21836296      1.86444089      1.01792596
H      -1.60478428      1.45866548     -0.64463344
H       1.13721756      2.03930012      0.55685479
H       0.62587379      2.24703773     -1.11939632
H       0.55427649     -0.19261790     -1.45323868
H       1.81441085     -1.89071480     -0.66682069
H       2.66392352     -0.97178774      0.64737922
H       0.82998827      0.00056511      1.54374378
