16
b3lypvtz=-204460.57796765
C       0.50555207      1.87491746     -0.30788568
C       0.49841922      0.58274589      0.03219360
C       1.69841689     -0.12734536      0.60711746
C       2.27760576     -1.19323422     -0.33200549
N      -0.60843866     -0.25835832     -0.19510302
C      -1.74879105      0.06596958      0.23207671
O      -2.85037658     -0.66581274     -0.00809068
H       1.38590511      2.48278485     -0.15478069
H      -0.34748526      2.34210718     -0.78087625
H       2.46246384      0.61293839      0.84800954
H       1.40518068     -0.60369612      1.54804014
H       2.62919994     -0.74174894     -1.26102877
H       3.12041900     -1.70220243      0.13812406
H       1.52479750     -1.93898790     -0.58415542
H      -1.97439204      0.94424401      0.83653139
H      -2.58084743     -1.41714033     -0.55758592
