14
b3lypvtz=-203683.35783569
C      -1.30955546      0.91788224     -0.38749194
C      -1.50410661     -0.55024985     -0.12758437
C      -0.28981541      0.15777100      0.41151791
C       1.06765700     -0.11037117     -0.20003732
C       1.70982152     -1.27273217      0.45199576
N       2.21051137     -2.15841730      0.98917510
O       1.93598533      1.01390489     -0.18646215
H      -1.93846307      1.62255064      0.13747938
H      -1.03349022      1.22696882     -1.38643379
H      -2.26230232     -0.85731771      0.57809582
H      -1.36433577     -1.23484012     -0.95347424
H      -0.26577971      0.33222452      1.48086417
H       0.94140181     -0.35634127     -1.25663827
H       2.10247153      1.26896749      0.72801948
