15
b3lypvtz=-214494.28856674
C       3.31676098     -0.69443789     -0.08280690
C       2.05898909     -0.02532833      0.36934847
N       1.17013826      0.36403993     -0.43873719
C      -0.01681070      1.00883887      0.10728646
C      -1.25218705      0.30844685     -0.37236277
N      -2.12022885     -0.07113906      0.46849950
O      -3.21635491     -0.68603546     -0.16184726
H       3.40200561     -1.68727581      0.36708193
H       3.33208713     -0.78646582     -1.16666830
H       4.19067442     -0.12497670      0.24510262
H       1.94476470      0.11345923      1.45468979
H      -0.02749381      1.05315866      1.20281230
H      -0.03368150      2.03584586     -0.27527314
H      -1.37763908      0.13538959     -1.43980658
H      -3.77792829     -0.92824291      0.58129107
