14
b3lypvtz=-203705.08414013
C      -1.62847792     -0.77070600     -0.82941742
C      -0.30036406     -0.49473630     -0.22982330
C       0.32530956      0.64105020      0.19194028
N      -0.13084614      1.96792179      0.11671701
C       1.62421670      0.24303005      0.65686556
C       1.69355663     -1.09752331      0.48396671
O       0.54481762     -1.57071317     -0.05850366
H      -1.56581520     -0.99181191     -1.89924022
H      -2.10949787     -1.62302172     -0.34446882
H      -2.28567065      0.09191818     -0.71068261
H      -1.12296449      2.03847784     -0.05747804
H       0.10326053      2.50864262      0.93735795
H       2.39432939      0.88291187      1.05413555
H       2.45814591     -1.82534015      0.68883100
