12
b3lypvtz=-200543.01551394
C      -1.90974094     -0.90469112     -0.00062499
C      -0.62155042     -0.56219119      0.00013908
N       0.46216696     -1.47069111      0.00090787
C       1.52135995     -0.74523972      0.00054208
N       1.29872374      0.61841567     -0.00208971
C      -0.08637413      0.83523626     -0.00012526
N      -0.75109912      1.91748865      0.00108641
H      -2.67248504     -0.13990428     -0.00127241
H      -2.19997630     -1.94515285     -0.00058582
H       2.53006897     -1.13585949      0.00110582
H       2.00361389      1.33395922      0.00424283
H      -0.15593455      2.74357895      0.00030410
