15
b3lypvtz=-191180.57369287
C      -0.39233598      1.87710536     -0.11890841
C      -0.46902123      0.55630438      0.06503690
N      -1.78675642      0.02150076     -0.10228210
N      -1.88374674     -1.19874247      0.12130408
C       0.64920762     -0.35326545      0.41162203
C       2.08787560      0.07509308      0.35041696
C       1.56026374     -0.89052907     -0.67264627
H       0.53080891      2.42323807      0.00413925
H      -1.28033577      2.42551532     -0.39881902
H      -2.87122974     -1.44352118     -0.03088304
H       0.39189263     -1.07618061      1.17334695
H       2.75002270     -0.30112319      1.11772572
H       2.32081853      1.07785500      0.02149879
H       1.85415829     -1.92891867     -0.61303426
H       1.40699684     -0.52056234     -1.67687559
