14
b3lypvtz=-203658.79499389653
C      -1.71067977      0.14158395      0.44242366
N      -0.49457879      0.11297725     -0.43031618
C       0.50299438      1.14966980     -0.12918897
C       1.75373834      0.56750460      0.10376238
O       2.85796224      1.04874790      0.36722376
C       1.50219390     -0.92940365     -0.02384448
C       0.23876189     -1.17639383     -0.32225391
H      -2.19408262      1.10816507      0.32683546
H      -2.39515323     -0.65509083      0.14700110
H      -1.37901754      0.01322593      1.46797901
H      -0.81720305      0.18815463     -1.40029449
H       0.18990654      2.17541790     -0.18967500
H       2.27643613     -1.66746064      0.11932453
H      -0.33127842     -2.07709809     -0.47897687
