13
b3lypvtz=-192813.79762064
C      -3.44473567      0.31820796     -0.08373274
C      -2.40791667     -0.51587350      0.02496873
C      -1.04660154     -0.11864090      0.03843410
C       0.12314155      0.17386557      0.05475236
C       1.50287839      0.57016939      0.07682145
C       2.53128084     -0.15193868     -0.69490672
O       2.44323809     -0.31497857      0.71527188
H      -3.30676308      1.38746434     -0.16916436
H      -4.45819833     -0.05758888     -0.09061478
H      -2.58828856     -1.58304810      0.10845168
H       1.68073512      1.62002603      0.28917013
H       2.23282686     -1.01232336     -1.28384858
H       3.39897599      0.39398770     -1.05233313
