16
b3lypvtz=-227765.89712872
C       2.96789888     -0.58733744      0.13291425
N       1.77995476      0.04410385     -0.42377008
C       0.81360761      0.45075975      0.58445610
C      -0.41792509      1.06655193     -0.04752439
O      -1.12064991      0.08733502     -0.86243034
C      -2.15732883     -0.55245946     -0.30230775
O      -2.57605640     -0.40145335      0.81132313
H       2.75562373     -1.45516512      0.77706199
H       3.52236363      0.13870665      0.73170967
H       3.62103236     -0.91416848     -0.67624779
H       1.33238964     -0.58323014     -1.08072163
H       0.50557358     -0.37020960      1.25210664
H       1.27470090      1.21362692      1.22010282
H      -1.09794411      1.44864687      0.71010763
H      -0.13598392      1.85425773     -0.74297150
H      -2.58014183     -1.24961913     -1.03772575
