17
b3lypvtz=-212895.72317949
C      -1.77452565      0.28955606      0.77385393
C      -0.50631016      0.83221589      0.12269996
N       0.55590613     -0.14181111      0.24124966
C       1.82135034      0.08945286     -0.25922557
N       2.33605693      1.21457368     -0.59062208
N       2.61093137     -1.05977069     -0.31762601
N      -2.13567499     -1.00859731      0.19145368
H      -1.58279813      0.13230509      1.83673314
H      -2.56197604      1.04858367      0.69039594
H      -0.22467915      1.75846718      0.62945020
H      -0.70663532      1.09201012     -0.92764763
H       0.21876254     -1.09313163      0.23741956
H       1.70159218      1.98687989     -0.42096450
H       3.46784652     -0.88375088     -0.81902340
H       2.14451156     -1.89714627     -0.63193049
H      -2.84556519     -1.46903385      0.74653541
H      -2.51879293     -0.89080270     -0.73977203
