15
b3lypvtz=-214499.59211994
C       1.60748630     -1.38901556      0.43569798
C       1.15727682     -0.21047832     -0.00942432
N       1.99348563      0.83127703     -0.44107327
C      -0.28733415      0.13908209      0.02873460
C      -0.72848980      1.49626877      0.50397721
N      -1.09630649     -0.77806846     -0.34569709
O      -2.43592819     -0.36713104     -0.21248493
H       2.65843090     -1.64475597      0.38911295
H       0.92867450     -2.10634205      0.86640641
H       1.66063291      1.32462167     -1.25744692
H       2.95622748      0.55243698     -0.55855188
H       0.12589872      2.12131067      0.74600350
H      -1.34329860      1.98901135     -0.25128902
H      -1.35751395      1.38616095      1.38919923
H      -2.91608208     -1.13180312     -0.54497244
