13
b3lypvtz=-239439.41646389
C      -2.29454011     -0.16006598      0.57901461
C      -0.85541610     -0.19460573      0.32286700
C       0.32526554     -0.20288410      0.10190316
C       1.75879294     -0.19428378     -0.20972186
O       2.25503880      1.10749943     -0.43717220
O       2.42669909     -0.83748326      0.85419294
O      -3.07255020      0.10081487     -0.58396979
H      -2.62559185     -1.13214852      0.94823767
H      -2.50206738      0.57236054      1.36873379
H       1.93511776     -0.71692212     -1.15465908
H       2.02582459      1.64722727      0.32945551
H       3.35895784     -0.89089771      0.61396109
H      -2.73553093      0.90138909     -0.99925152
