17
b3lypvtz=-194378.71679705
C       2.89937899     -0.36335441     -0.02643901
C       1.66094972     -0.65625544     -0.40798172
C       0.45220908     -0.61686055      0.48909234
C      -0.50337715      0.48690378      0.10027913
O       0.07152252      1.73783288      0.04693990
C      -1.80899392      0.37591817     -0.14405318
C      -2.65633888     -0.85658473     -0.07138900
H       3.12953747     -0.10013979      0.99985398
H       3.72946221     -0.39485828     -0.71983908
H       1.47194143     -0.91918554     -1.44479282
H      -0.06327241     -1.57603986      0.45464048
H       0.77626695     -0.45702882      1.52277683
H       1.02663723      1.63770356     -0.04679777
H      -2.31979267      1.29711550     -0.40430984
H      -3.44521723     -0.74831181      0.67919109
H      -2.09045481     -1.75247711      0.18084435
H      -3.15945353     -1.04392253     -1.02445669
