18
b3lypvtz=-205206.89252384
C      -1.03753404      1.51189971      0.03061715
C      -0.80148546      0.01126097      0.00194772
O      -2.03412114     -0.70102865      0.06475839
C       0.19043738     -0.51255331      1.06715269
C       1.29409530     -0.61835971     -0.01663632
N       2.19569257      0.53413111      0.01103699
C       0.19466147     -0.46431764     -1.09949220
H      -1.61276926      1.82589630     -0.84656583
H      -1.59726007      1.78701502      0.92663358
H      -0.08998487      2.04890892      0.02373532
H      -2.65143989     -0.30062596     -0.55683109
H       0.39872077      0.14169051      1.91399889
H      -0.12675834     -1.48952027      1.42830409
H       1.81839246     -1.57937693     -0.03630892
H       2.78995484      0.49633060      0.83212419
H       2.81131219      0.51949403     -0.79489334
H       0.41146084      0.22899480     -1.91322106
H      -0.11813975     -1.42531350     -1.50526824
