17
b3lypvtz=-215257.96108919
C      -0.39324494      2.00328935     -0.05044478
C      -0.61175679      0.56324667      0.41049524
C       0.62914424     -0.28078030      0.35760251
N       1.70844648      0.15150271     -0.14814499
O       2.72691625     -0.82129749     -0.09448200
C      -1.75543960     -0.10185308     -0.38498521
N      -2.05632894     -1.45363469      0.09732041
H      -1.31513334      2.57715018      0.05794370
H       0.38542516      2.49024371      0.53494049
H      -0.08585359      2.04206229     -1.09592577
H      -0.93665129      0.56268964      1.45739553
H       0.58504092     -1.28811262      0.77107006
H       3.47549926     -0.36265349     -0.48858124
H      -2.65038335      0.50755156     -0.24652865
H      -1.50511431     -0.06206816     -1.45382071
H      -2.98455004     -1.73315989     -0.19317798
H      -1.41708114     -2.13164239     -0.29946960
