16
b3lypvtz=-181139.70055631
C      -1.46452046     -0.66496800      0.15877100
C      -1.46452217      0.66496344      0.15877190
C      -0.28991861      1.50354961     -0.25941725
C       1.01634272      0.74119038     -0.32525759
N       1.50215046      0.00000113      0.85041393
C       1.01634460     -0.74118788     -0.32525858
C      -0.28991472     -1.50355063     -0.25941915
H      -2.35885269     -1.19612764      0.46515821
H      -2.35885573      1.19612039      0.46515991
H      -0.48993349      1.94001902     -1.24572657
H      -0.18397454      2.35979176      0.41667080
H       1.80849189      1.25516776     -0.85907663
H       0.78291639     -0.00000020      1.56913510
H       1.80849517     -1.25516243     -0.85907825
H      -0.48992845     -1.94001957     -1.24572890
H      -0.18396840     -2.35979314      0.41666806
