22
b3lypvtz=-183434.66946297
C      -3.10085891      0.25632118     -0.38740855
N      -1.73235663     -0.23172689     -0.46350891
C      -1.01837264     -0.17147938      0.80667277
C       0.40744034     -0.70876398      0.68816320
C       1.32113020      0.02205794     -0.30974208
C       2.65444200     -0.71879426     -0.44893627
C       1.55190636      1.48567862      0.07790422
H      -3.09540029      1.32498642     -0.16191468
H      -3.71349905     -0.24033126      0.38249228
H      -3.59304585      0.12565135     -1.35158530
H      -1.72810690     -1.18521619     -0.80702618
H      -1.00245265      0.87368679      1.12795493
H      -1.54078358     -0.72539517      1.60566132
H       0.35695775     -1.76748050      0.40789029
H       0.86746117     -0.68479558      1.68207533
H       0.81960943      0.01111815     -1.28081358
H       3.30093330     -0.23497440     -1.18369585
H       2.50490441     -1.75295454     -0.76666387
H       3.19386158     -0.73972536      0.50234567
H       2.21772337      1.97544778     -0.63530730
H       2.01341590      1.56176624      1.06686540
H       0.62092070      2.05283704      0.09676115
