12
b3lypvtz=-252118.97357093
C      -1.19104309     -0.48656569      1.09826692
C      -0.84430816     -0.11235996     -0.31336922
N      -1.74281054     -0.05346509     -1.21100685
C       0.57859326      0.18222325     -0.60740325
N       1.48035148      0.12486649      0.28145056
O       2.74322948      0.43602914     -0.19890447
F       0.84913133      0.51391914     -1.87780823
H      -2.26060562     -0.66960120      1.15682645
H      -0.64639976     -1.37907025      1.40867512
H      -0.91383882      0.30976343      1.79010104
H      -1.34713408      0.21373851     -2.11269317
H       3.29483454      0.34617717      0.58586510
