14
b3lypvtz=-224587.66934919
C      -2.74826000      0.38069447     -0.58622455
N      -1.37563442      0.79704017     -0.36283900
C      -0.43728011     -0.03570182     -0.53415592
O      -0.60592143     -1.32805642     -0.91872279
C       0.95299345      0.38105630     -0.31036525
N       1.88176117     -0.47828912     -0.47420188
N       3.18113703     -0.10499396     -0.34687802
H      -2.85039784     -0.50183632     -1.22150642
H      -3.22299236      0.16354027      0.37552184
H      -3.29823321      1.21062939     -1.03134605
H       0.28230585     -1.71446228     -0.99038344
H       1.11736790      1.41705802     -0.01792771
H       3.35387077      0.70445251      0.24118513
H       3.76938319     -0.89123121     -0.12205593
