14
b3lypvtz=-203690.43939305
C       2.63744642      0.46217429     -0.48166526
N       1.20503778      0.41240483     -0.28065751
C       0.68432848     -0.66896387      0.11441078
C      -0.79161746     -0.80844983      0.34730560
O      -1.21689363     -1.88451076      0.72624306
C      -1.65088130      0.37643916      0.10222632
C      -2.96703565      0.31996833      0.28585661
H       3.05242592      1.25503093      0.14400029
H       3.14832066     -0.48169850     -0.25809827
H       2.83635315      0.74444621     -1.51748713
H       1.25422700     -1.58375919      0.31833473
H      -1.15384906      1.27689132     -0.22973151
H      -3.43566712     -0.59773308      0.61875771
H      -3.60219518      1.17776014      0.11050456
