13
b3lypvtz=-190473.97184558
C       2.35742332      0.00962339      0.00002946
C       1.01383326      0.04871943      0.00000402
C       0.18795605      1.24058265     -0.00001343
C      -1.15655170      1.15007923     -0.00001163
N      -1.86145554     -0.04933534      0.00000634
C      -1.12954719     -1.10863660      0.00000726
N       0.22804422     -1.12236161     -0.00001120
H       2.92600404      0.92586832      0.00003209
H       2.90323200     -0.92354164      0.00003858
H       0.67996317      2.20272461     -0.00001908
H      -1.77147466      2.04085085     -0.00002171
H      -1.59921979     -2.08707693      0.00002453
H       0.70119179     -2.01157137      0.00002176
