16
b3lypvtz=-181129.2706837
N       1.04186911      1.85936291      0.88700206
C       0.86301134      0.72974888      0.35629758
C       1.85055964     -0.38355497      0.02997247
C       0.66544371     -1.22513787     -0.54553969
C      -0.28495270     -0.06937182     -0.19336275
C      -1.45062256      0.46923960     -0.98110125
C      -1.68054869     -0.13223581      0.37051586
H       0.16418576      2.37772085      0.96745966
H       2.61451279     -0.09755229     -0.69278185
H       2.34264925     -0.80735495      0.90520403
H       0.74279920     -1.44094104     -1.61041493
H       0.47033162     -2.15283029     -0.00905593
H      -1.52312106      1.54433437     -1.08570004
H      -1.75827847     -0.09243593     -1.85317363
H      -1.91181492      0.52857489      1.19622379
H      -2.14592402     -1.10736653      0.42705463
