15
b3lypvtz=-191189.50026614
C       2.24750139      0.54359066      0.25531974
C       1.12144139     -0.41869165      0.07946336
C      -0.19263193     -0.17463733     -0.08738125
C      -1.14659723     -1.26116530     -0.31067751
C      -2.45177066     -1.12526992     -0.54442425
N      -0.74542420      1.13360836     -0.20561793
N      -0.36408848      1.95951336      0.63909752
H       1.96962718      1.56682732      0.01530506
H       3.10068133      0.24348100     -0.35754865
H       2.58941744      0.54634060      1.29487334
H       1.40607898     -1.46556204      0.03145503
H      -0.71649982     -2.25586788     -0.26182942
H      -2.92141843     -0.15369847     -0.60554316
H      -3.08016213     -1.99250184     -0.69264995
H      -0.81615484      2.85403311      0.39631219
