13
b3lypvtz=-237065.33701743
C      -0.52654181      1.95135238      0.00003797
C      -0.64685630      0.46006272      0.00002518
N      -1.82834259     -0.03601201     -0.00004188
O      -1.78415682     -1.45224814     -0.00003641
N       0.48794320     -0.33792521      0.00007567
C       1.80197043      0.06244190      0.00011485
O       2.72979197     -0.71122500      0.00000433
H       0.00650892      2.30879395      0.88297549
H       0.00650234      2.30881129     -0.88289793
H      -1.52751302      2.37372676      0.00004283
H      -2.71563891     -1.68905400     -0.00008289
H       0.32703647     -1.33686620      0.00010622
H       1.93434112      1.15341855     -0.00030642
