12
b3lypvtz=-202905.84709781
C      -2.37077561      0.02674524      0.00006307
C      -1.02770661      0.05814047     -0.00000375
C      -0.19545027      1.24387858     -0.00005148
C       1.13286506      1.10298750     -0.00008404
O       1.78765571     -0.08507882     -0.00007903
N       1.03686155     -1.28087616     -0.00006679
C      -0.23728758     -1.16855080     -0.00004326
H      -2.90867556     -0.91110080      0.00008695
H      -2.95623462      0.93559713      0.00009475
H      -0.62994762      2.23280147     -0.00006458
H       1.83969784      1.92066092     -0.00011773
H      -0.74548930     -2.12775474     -0.00003712
