19
b3lypvtz=-192742.04771049
C       2.37373416      1.15976744      0.39299300
C       2.30219388     -0.07809921     -0.49881553
C       1.19964317     -1.06230681     -0.09841285
N      -0.12290802     -0.49402880     -0.30048988
C      -0.93807745     -0.47900749      0.66102782
C      -2.33428007      0.08381841      0.54201091
N      -2.72712351      0.63110373     -0.74526613
H       2.55667210      0.88604786      1.43519156
H       3.17992498      1.82449677      0.07902666
H       1.44239700      1.72648746      0.35611262
H       3.25718479     -0.60970998     -0.47030891
H       2.13762242      0.22045262     -1.53681129
H       1.27436082     -1.94751314     -0.73659449
H       1.34862473     -1.39159029      0.94187392
H      -0.67406165     -0.88396890      1.65152592
H      -2.45336313      0.85528828      1.31162355
H      -3.03953390     -0.70593817      0.82641218
H      -2.07778679      1.36512978     -1.00661159
H      -2.61006353     -0.08093157     -1.45813846
