15
b3lypvtz=-214543.02075168
C       1.24830989     -0.91079162      0.41481314
C       0.15469018      0.16919200      0.36631648
C       0.68293674      1.42497995     -0.27502735
N       0.15298393      1.91642837     -1.31282276
N      -1.03339480     -0.27019892     -0.33790016
C      -1.93700238     -1.11369493      0.20926178
O      -1.82153932     -1.65606675      1.29166600
H       0.86504623     -1.78729594      0.93266949
H       2.12643912     -0.54763471      0.95200377
H       1.54813720     -1.19547654     -0.59443194
H      -0.11965479      0.40771315      1.40050442
H       1.56360979      1.84988020      0.21710622
H       0.63492218      2.75411547     -1.63171507
H      -1.25341272      0.23110774     -1.18716767
H      -2.81207123     -1.27225746     -0.44527635
