16
b3lypvtz=-181160.92999248
C       3.44034209     -0.04778130     -0.19240750
C       2.00190250     -0.56015124     -0.15366233
C       1.00976774      0.50222699      0.35082554
C      -0.39141111     -0.00574336      0.43574654
C      -1.42931691      0.50764835     -0.23048392
C      -2.75169293     -0.01087204     -0.13004440
N      -3.83059092     -0.41415391     -0.06445789
H       4.12212249     -0.81840474     -0.55392772
H       3.77870308      0.25670596      0.80022210
H       3.53513302      0.81573583     -0.85397421
H       1.94200906     -1.44185988      0.49034142
H       1.69664291     -0.88737793     -1.15057707
H       1.04973000      1.38452901     -0.29267682
H       1.32658913      0.82478820      1.34949578
H      -0.56143359     -0.86222895      1.08091561
H      -1.30345954      1.36106901     -0.88705015
