12
b3lypvtz=-226220.42807909
C      -1.52503897     -0.00282002     -0.13642418
C      -0.92114419     -1.18658836     -0.05741918
O       0.48185011     -1.32165158      0.07131712
C       1.16365045     -0.12013652      0.10664184
C       0.59336493      1.07850228      0.03032796
N      -0.81679728      1.17920857     -0.09779579
O       2.49392446     -0.32009729      0.22948160
H      -2.59830069      0.05466574     -0.23384502
H      -1.42022790     -2.13800787     -0.08221545
H       1.17696024      1.98158128      0.06330520
H      -1.26737909      2.06816382     -0.15644173
H       2.63913796     -1.27282004      0.26306763
