15
b3lypvtz=-191176.11771045
C      -0.01170361     -0.00140900      1.50968414
C      -0.00680667     -1.12609097      0.45578640
C      -0.70044430     -0.31012023     -0.74983248
C       0.70292985      0.31230495     -0.74110019
C      -0.00451510      1.12562110      0.45830351
N      -1.28655013      0.94271089     -0.27594469
N       1.28355817     -0.94159016     -0.26330770
H       0.87139792     -0.04397324      2.14985808
H      -0.90207936      0.03973390      2.13979729
H      -0.28679710     -2.13643117      0.73989641
H      -1.14514767     -0.85797962     -1.57448996
H       1.15706944      0.86195568     -1.55940398
H       0.27220393      2.13532360      0.74784871
H      -2.10470161      0.85085458      0.32281097
H       2.09478624     -0.85111031      0.34499348
