17
b3lypvtz=-191992.04235693
C      -0.28554446      1.86885015     -0.45302542
C       0.16062741      0.79555345      0.53984702
N       1.57625531      0.44162293      0.26647396
C       1.55796112     -0.73068771     -0.22898078
N       0.32466565     -1.34481609     -0.37137306
C      -0.60932902     -0.56377136      0.46313843
C      -2.02644066     -0.54898587     -0.08867631
H      -1.30541704      2.20239728     -0.25459894
H       0.37846249      2.72863155     -0.36973298
H      -0.23294091      1.50457680     -1.47997348
H       0.08982861      1.20623981      1.54813834
H       2.44836574     -1.24199342     -0.57936691
H       0.28691937     -2.35143475     -0.31801465
H      -0.63243243     -0.99273440      1.47327849
H      -2.67871666      0.06121617      0.53857031
H      -2.44239176     -1.55836648     -0.10692248
H      -2.05426675     -0.15676907     -1.10433155
