18
b3lypvtz=-181892.04439295
C       1.90064934     -0.44967976     -1.06167589
C       0.79806531     -0.41605547     -0.01052928
C       0.32636269      1.00986928      0.43305822
C      -1.17102683      0.85626601      0.12919244
C      -1.18124410      0.22317799     -1.28242928
C      -0.57688313     -0.94554490     -0.46556290
N      -1.42209778     -0.51920705      0.71931570
H       2.82493087     -0.02298437     -0.66699512
H       2.11934167     -1.47370482     -1.37363069
H       1.63332271      0.12038694     -1.95362632
H       1.11361714     -0.99112279      0.86058231
H       0.50545941      1.20131278      1.48950749
H       0.78838541      1.80653743     -0.15200188
H      -1.83905227      1.66407657      0.42008645
H      -2.19139138      0.00106468     -1.62597360
H      -0.60411119      0.68675554     -2.08568709
H      -0.63633024     -1.98462013     -0.78406218
H      -2.38799762     -0.76652793      0.50791731
