19
b3lypvtz=-171831.27547867
C       2.66104642      0.02445350      0.00000021
C       1.35131385     -0.16150703     -0.00000058
C       0.30091666     -0.23704907     -1.09108721
C      -0.79752587      0.01479620     -0.00000063
C      -1.96649311     -0.96076546     -0.00000318
C      -1.28184572      1.46234953      0.00000263
C       0.30091621     -0.23705382      1.09108536
H       3.22128230      0.10501663     -0.92371713
H       3.22128163      0.10501243      0.92371832
H       0.22527116     -1.23345951     -1.53413853
H       0.37114611      0.49457835     -1.89782323
H      -2.59630252     -0.81947771     -0.88215418
H      -2.59630299     -0.81948190      0.88214816
H      -1.61969176     -1.99608578     -0.00000557
H      -1.89073405      1.67056548     -0.88316433
H      -1.89073386      1.67056141      0.88317069
H      -0.44263136      2.16113806      0.00000417
H       0.22527049     -1.23346591      1.53413288
H       0.37114540      0.49457059      1.89782414
