14
b3lypvtz=-180381.42927146
N      -2.17317182     -0.63439209     -0.02561141
C      -1.00439273     -0.13148285     -0.04889956
C      -0.55878703      1.26134288      0.18242921
C       0.75106808      1.38182510     -0.06589484
C       1.36548687      0.07449760     -0.43230296
C       1.31936205     -0.96994729      0.66099080
C       0.22747207     -0.91846742     -0.38623734
H      -2.86516540      0.07434150      0.22117599
H      -1.21930766      2.04596442      0.52435460
H       1.32559331      2.29392794      0.02419321
H       2.14993243      0.02589472     -1.17412987
H       1.09568302     -0.64219789      1.66711496
H       2.00961677     -1.79994605      0.59134197
H       0.14024004     -1.74206757     -1.07806477
