15
b3lypvtz=-237839.4626931
C      -2.62311971     -0.23810705      0.07666062
N      -1.24571820     -0.55669873     -0.23379204
C      -0.23792387      0.34521198     -0.10538623
N      -0.30179565      1.59005787      0.18098106
C       1.16252915     -0.23070473     -0.37834392
O       2.12887002      0.69261050     -0.01382314
O       1.33951921     -1.46578488      0.29883086
H      -2.76077708      0.05729015      1.12264718
H      -3.24149597     -1.11109445     -0.11966399
H      -2.98058527      0.57559337     -0.55760116
H      -0.96005182     -1.52180247     -0.19019660
H      -1.24151207      1.92823433      0.36447472
H       1.24402838     -0.48864736     -1.43995868
H       1.62889955      1.49376972      0.24121587
H       1.58241933     -1.24787925      1.20736643
