13
b3lypvtz=-169519.65082022
C       3.62370442      0.57385120     -0.00400075
C       2.74007934     -0.42947723      0.00407747
C       1.33539814     -0.26986585      0.00303117
C       0.12623103     -0.17793429      0.00228248
C      -1.22853258     -0.06425935      0.00135836
C      -2.43339989      0.03460480      0.00037042
C      -3.87962659      0.15331633     -0.00026659
H       4.68605775      0.37403572     -0.00267603
H       3.30786589      1.60796142     -0.01203448
H       3.10058395     -1.45407227      0.01214255
H      -4.33754868     -0.63434573     -0.60281312
H      -4.19431512      1.11552589     -0.41031219
H      -4.27945965      0.07433137      1.01331572
