13
b3lypvtz=-213749.33923899
N      -2.07105916     -0.05727214     -0.42657716
C      -1.07633933      0.14518897      0.63398109
C       0.36456348      0.01930192      0.22509770
C       1.25514890     -0.96292100      0.51391902
O       2.44252128     -0.72724239     -0.06844414
N       2.35622431      0.46802497     -0.78430558
C       1.13579064      0.89015894     -0.60120535
H      -1.97868674      0.65397808     -1.14237557
H      -1.91660088     -0.94822434     -0.88469535
H      -1.28333626     -0.57160682      1.43059844
H      -1.25236514      1.13370099      1.06342684
H       1.18966294     -1.86057837      1.10617631
H       0.83447596      1.81739119     -1.06549625
