14
b3lypvtz=-203633.53374661
C      -1.10575623      0.76245238      0.16904657
C       0.33301985      1.09830905     -0.22546900
C       0.74512106      0.10033392      0.93027120
N      -0.61370501     -0.49477736      0.83803440
C       0.48760930     -0.99085749     -0.04678459
C       0.67175138     -0.03792371     -1.22700210
O       1.98881422     -0.02161205     -1.73813663
H      -1.83805593      0.60995771     -0.62834318
H      -1.52352368      1.41222172      0.93635714
H       0.69196071      2.10609410     -0.41148744
H       1.31690210      0.16374486      1.84406632
H       0.72312128     -2.04349684      0.01088484
H       0.01853260     -0.13966476     -2.09498000
H       2.60550835     -0.04978154     -0.99685753
