14
b3lypvtz=-203634.41943231
C      -1.89051493     -0.28826141      0.06998827
C      -0.66387739     -0.37607206      1.00039687
C       0.25704932      0.02324969     -0.19180906
C      -0.76459893     -1.06303552     -0.64430562
O      -0.51344719     -1.80494093      0.61901681
C       1.69881160     -0.33613198     -0.12932563
N       2.58071513      0.49209014     -0.51362166
H      -2.74205986     -0.89121737      0.37407856
H      -2.16820882      0.68947222     -0.32140123
H      -0.56584110     -0.12406854      2.05348914
H       0.11868008      1.02326147     -0.60015107
H      -0.78794682     -1.63685795     -1.56752703
H       1.92489880     -1.33185982      0.25948329
H       3.51634011      0.09961968     -0.40831163
