12
b3lypvtz=-200508.20153933
C      -1.45547322     -1.53664119     -0.33755033
C      -0.77957507     -0.45896185      0.05682895
C       0.52173650     -0.51188432      0.83092391
C       1.68780717     -0.16362199      0.01962078
N       2.61273674      0.08162642     -0.61833718
N      -1.35687013      0.79800226     -0.27449142
N      -0.72520549      1.77650116      0.16105689
H      -2.38129282     -1.41554300     -0.88165982
H      -1.10581555     -2.53807322     -0.13150353
H       0.66628985     -1.51721563      1.22638763
H       0.47766687      0.18480999      1.66986509
H      -1.23224085      2.61777535     -0.14122698
