15
b3lypvtz=-191210.89509498
C      -3.46183814      0.19089559      0.03108525
C      -2.05388542     -0.18224904      0.01770924
C      -0.89064829     -0.51250767      0.00041042
C       0.46678187     -0.89777496     -0.01690994
C       1.48689066      0.00086497     -0.01361815
N       1.28732143      1.36893785     -0.12086306
N       2.81808285     -0.38712853     -0.01588766
H      -4.09286090     -0.68252601     -0.14963887
H      -3.76295055      0.61808629      0.99149223
H      -3.69290714      0.92488043     -0.74536760
H       0.70696412     -1.95160202     -0.07631584
H       1.85615515      1.93571277      0.49206185
H       0.31091257      1.62264370     -0.07081232
H       3.02086895     -1.25827563      0.44381205
H       3.49854884      0.33170227      0.16275240
