17
b3lypvtz=-212883.29326475
C      -2.41198681     -0.44603542     -0.47999402
N      -1.27775531     -0.55887602      0.43499883
C      -0.18185266      0.32986978      0.19141140
N      -0.33661647      1.75774629      0.15949726
C       1.05099527     -0.19070469     -0.00099204
N       2.15578817      0.58231295     -0.35346636
N       1.33355208     -1.54870065      0.13875842
H      -3.18807158     -1.15462633     -0.18620353
H      -2.08732660     -0.70148439     -1.49024990
H      -2.86540218      0.55488942     -0.51497982
H      -1.60180988     -0.49993742      1.39483320
H      -0.88209422      2.08286222     -0.63066673
H      -0.77491058      2.11977990      1.00016762
H       2.98706904      0.33284379      0.16571723
H       1.93918299      1.56670271     -0.27048567
H       1.91696552     -1.90515910     -0.60651321
H       0.47791521     -2.07870105      0.23691031
