12
b3lypvtz=-223810.01693223
C      -1.73690538      0.26031743      0.23447856
N      -0.77594608     -0.67858211     -0.31292634
C       0.56202473     -0.37445929     -0.23161427
C       1.26136501      0.50861862      0.53213427
O       2.57102306      0.35137019      0.25021108
N       2.65644399     -0.65309911     -0.72817780
N       1.49261744     -1.05468028     -0.98718350
H      -1.64742723      1.26862591     -0.19023845
H      -1.61041879      0.33437489      1.31641120
H      -2.74214532     -0.11015381      0.04573058
H      -1.02780930     -1.09950375     -1.19323424
H       0.99717785      1.24717129      1.26440889
