19
b3lypvtz=-192741.38680496
C      -2.47240024     -0.70613324      0.10212476
N      -1.08745808     -0.54439666      0.52553071
C      -0.23973567      0.26306351     -0.36433156
C      -0.54806745      1.76050768     -0.36720355
C       1.20907136     -0.05175555      0.00799723
C       1.69213102     -1.42546164     -0.38279224
N       1.89088933      0.82189285      0.62694890
H      -3.00142478     -1.31565825      0.83545360
H      -3.03212036      0.23099776     -0.02461514
H      -2.49974273     -1.24092029     -0.84962222
H      -1.04689489     -0.15569189      1.46058552
H      -0.40442818     -0.13363990     -1.37270908
H       0.07597185      2.28728497     -1.09011072
H      -0.34676973      2.19431929      0.61158216
H      -1.59201392      1.93648898     -0.62896507
H       1.76905192     -1.50046498     -1.47109330
H       2.66926366     -1.64274752      0.04786630
H       0.97527561     -2.17875381     -0.05550701
H       2.82529029      0.47105368      0.84107070
