15
b3lypvtz=-193578.40220801
C       2.52737592      1.17989572     -0.07619901
C       1.94636114      0.13643523      0.03753064
C       1.23908415     -1.13412107      0.16368469
C      -0.20662239     -1.10511766     -0.37031835
C      -1.11497707     -0.20394584      0.42494316
C      -1.43555028      1.16054777      0.00527872
O      -2.38393140      0.09952706     -0.16293378
H       3.04530134      2.10095999     -0.17381397
H       1.79928015     -1.90476526     -0.37177456
H       1.23544836     -1.43789929      1.21518209
H      -0.21408691     -0.79178280     -1.41531316
H      -0.60417235     -2.12297031     -0.33569623
H      -1.17111285     -0.42716817      1.48923777
H      -1.00345359      1.54603394     -0.91222806
H      -1.70143722      1.90668968      0.74693206
