11
b3lypvtz=-213028.60253372
O       1.47188060     -0.28413429      0.76637882
C       2.34056286      0.04744671      0.00874110
N       2.97110500     -0.82143067     -0.88488250
C       3.98284305     -0.49731953     -1.78598705
C       4.27502354     -1.65266479     -2.43385595
N       3.47994465     -2.69051960     -1.96898238
C       2.71820565     -2.17212555     -1.05375675
H       2.73499111      1.07270092     -0.06408064
H       4.37469629      0.50081956     -1.86420622
H       5.00619453     -1.81354146     -3.20743811
H       1.96905272     -2.67683128     -0.46873033
