16
b3lypvtz=-227751.02026589
C       1.46548355     -1.32585871     -0.74387969
C       0.99165227     -0.27434566     -0.06592365
N       1.51614094      0.23620639      1.10937445
C      -0.28301105      0.41362476     -0.51393567
O      -0.04233785      1.79610788     -0.54586046
O      -1.36700967      0.22047034      0.37923622
C      -1.94577720     -1.07293003      0.33855168
H       2.36141610     -1.84995228     -0.43801195
H       0.95617208     -1.68443745     -1.62525435
H       1.32721631      1.21737479      1.24701658
H       2.47212335     -0.01310223      1.30502407
H      -0.56677889      0.03212749     -1.50487143
H      -0.90117362      2.23175398     -0.59163491
H      -2.29285547     -1.32259512     -0.67148531
H      -2.79921458     -1.05348879      1.01290405
H      -1.24263628     -1.84223935      0.66785237
