15
b3lypvtz=-191222.25718312
C       3.13361830      0.81951149      0.12063421
C       2.61247447     -0.39221907     -0.09483042
C       1.21807646     -0.79135476      0.03778920
C       0.15566681      0.02103388     -0.08947480
N      -1.14356230     -0.42422887      0.07084954
C      -2.09236332      0.42125846     -0.06791105
N      -3.40269637      0.06578049      0.01168349
H       4.18671064      1.01000641     -0.03482330
H       2.53424640      1.65075115      0.47049280
H       3.29199994     -1.18783955     -0.38761300
H       1.01782361     -1.84044681      0.22495500
H       0.30661393      1.07268279     -0.34685471
H      -1.92697338      1.48091993     -0.29173388
H      -3.61248485     -0.85840475      0.35222230
H      -4.09902333      0.77598920      0.14523261
