12
b3lypvtz=-207896.93310585
C      -3.33577619     -0.02460535     -0.39535594
C      -1.89086209     -0.02347752     -0.26488406
C      -0.68801334     -0.01874600     -0.15688639
C       0.66836210     -0.01520420     -0.03416952
C       1.87134352     -0.00900646      0.07421386
C       3.31523937     -0.02524812      0.21025580
F       3.86862106      1.22976664     -0.04737033
H      -3.69278862      0.94183286     -0.75766012
H      -3.66507167     -0.78977864     -1.10150813
H      -3.81654504     -0.22152693      0.56518180
H       3.60414628     -0.31098281      1.22480163
H       3.76124463     -0.73302348     -0.49301859
