9
b3lypvtz=-235552.69659028
N      -2.01643567      0.60222137      0.15969664
C      -1.47899730     -0.09323893     -0.71942801
O      -0.10900764     -0.41073002     -0.92342885
C       0.86855546      0.04072819     -0.11927772
O       0.76717921      0.74252626      0.84576292
C       2.16090578     -0.46228156     -0.59649168
N       3.19916574     -0.82892109     -0.92745863
H      -1.36747834      1.00124185      0.83203716
H      -2.02378724     -0.59154608     -1.51241183
