22
b3lypvtz=-183439.61932045
C      -2.79707082     -0.91338534     -0.02958294
C      -1.62801463      0.02706056     -0.34000864
C      -1.91001539      1.43078116      0.20637480
C      -0.30937813     -0.56035408      0.18996373
C       0.95621601      0.19185641     -0.22582891
C       2.23638495     -0.48710200      0.25259965
N       3.42004870      0.24489653     -0.21246989
H      -2.92744132     -1.02916857      1.04994810
H      -3.73461579     -0.52848430     -0.43564031
H      -2.63232912     -1.90671414     -0.45186529
H      -1.54032408      0.10255858     -1.43017457
H      -1.98306239      1.41408976      1.29763392
H      -2.85494551      1.81668300     -0.18123227
H      -1.12987761      2.14251457     -0.06488810
H      -0.36212926     -0.61465320      1.28390164
H      -0.22980759     -1.59534015     -0.15943972
H       0.93432836      1.21230587      0.16914831
H       0.99912168      0.28312227     -1.31475399
H       2.19392455     -0.60342669      1.34611723
H       2.28711035     -1.49610429     -0.16557625
H       3.45612815      1.16173151      0.21948180
H       4.26688388     -0.23618647      0.06678173
