18
b3lypvtz=-202800.14194094
C      -1.83813414      1.41768370     -0.11209483
C      -1.43755411      0.01478116      0.34612307
C      -2.54093421     -0.99560310      0.04601395
N      -0.21096732     -0.43137863     -0.33054839
C       1.00876006      0.15125914     -0.03450407
N       2.09011100     -0.51665190     -0.05301023
N       3.27590054      0.19480218      0.21230121
H      -2.75334738      1.73166578      0.39229055
H      -2.01115641      1.42851006     -1.18951904
H      -1.07025201      2.15743431      0.11496056
H      -1.28481664      0.03800381      1.43426513
H      -3.47138138     -0.70316024      0.53255654
H      -2.71937287     -1.05780994     -1.02929639
H      -2.27393739     -1.99110583      0.40708027
H      -0.12607545     -1.43679663     -0.39839820
H       0.98021162      1.22407910      0.16879408
H       3.28921690      1.10043996     -0.25154536
H       4.03952518     -0.35290292     -0.15957884
