16
b3lypvtz=-204419.30795595
C       2.01877774      0.24514751      0.00047831
C       0.66417820      0.60573907      0.54807531
C       1.06799473     -0.84622545      0.39439563
N       0.00572663     -1.07998196     -0.58939530
C      -0.39924815      0.36668372     -0.52682757
C      -1.85584160      0.49735469     -0.10821712
O      -2.17285471     -0.32365833      0.99824970
H       2.84862952      0.40204849      0.67786524
H       2.25028833      0.41859875     -1.04570847
H       0.52311126      1.17683296      1.45259588
H       1.29841664     -1.58840032      1.14644297
H       0.33034361     -1.40211751     -1.49586996
H      -0.23785146      0.92846288     -1.45336236
H      -2.49026324      0.25523461     -0.97244677
H      -2.06864250      1.52943688      0.18046703
H      -1.78276500     -1.18515598      0.79325747
