11
b3lypvtz=-261988.4970692
C       1.60611462      0.03363759      0.12709322
O       0.86750231     -1.18872413      0.13279254
C      -0.45854984     -0.81206685      0.00670761
C      -0.57073184      0.50302949     -0.07314981
O       0.67501173      1.11855605     -0.00692669
O      -1.65921667      1.30000922     -0.20330371
O      -1.32480462     -1.84835694     -0.00678437
H       2.14949485      0.13808097      1.07032103
H       2.29510916      0.04165485     -0.72204045
H      -1.36110783      2.21524257     -0.22790768
H      -2.21882189     -1.50106280     -0.09680167
