15
b3lypvtz=-214521.55015735
C      -0.14321812      1.51261434     -0.54784683
C      -0.06836978      0.07326603     -0.07585539
C       1.12221102     -0.46859520      0.26787865
N       1.38527361     -1.72352442      0.76312064
C      -1.31152420     -0.66862559     -0.04577845
N      -2.42529151     -0.14405803     -0.39796455
O       1.06451097      2.24887652     -0.36077730
H      -0.98861553      2.00736806     -0.06253901
H      -0.34781547      1.54448440     -1.61969285
H       1.99798007      0.16364259      0.19311364
H       2.33031165     -2.05357964      0.67558967
H       0.69257222     -2.44479322      0.65696346
H      -1.25522658     -1.71011010      0.29572671
H      -3.18677324     -0.81383419     -0.31317720
H       1.13397490      2.47686845      0.57123881
