16
b3lypvtz=-202019.81601987
N       3.19733651     -0.18565180      0.43215673
N       1.81535835     -0.43557181      0.49805056
C       1.04478071      0.48516644      0.07769767
N      -0.32476606      0.36462409      0.11331638
C      -1.23728478      0.84351396     -0.94398026
C      -2.18950945     -0.32617655     -0.58980859
C      -1.02819057     -0.92144577      0.24364889
H       3.42385714      0.78134545      0.65531092
H       3.64167427     -0.77713383      1.12074518
H       1.40514676      1.44557500     -0.30528596
H      -0.81612970      0.76479991     -1.95179947
H      -1.61393877      1.85616565     -0.79222896
H      -3.03867832     -0.01641760      0.01516387
H      -2.54094076     -0.92575240     -1.42500730
H      -1.24248893     -1.21393281      1.27155090
H      -0.49612640     -1.73920794     -0.25103055
