15
b3lypvtz=-216925.23745235
C      -2.68768744      0.39050013      0.00000207
C      -1.39697566      0.73288150      0.00000394
C      -0.29832460     -0.21141358      0.00000026
O      -0.67621479     -1.53163613     -0.00000108
C       1.00957958      0.11426796      0.00000113
C       1.63409430      1.46577499     -0.00000178
O       1.88909479     -0.96158456      0.00001483
H      -2.99594920     -0.64506460     -0.00000172
H      -3.46121331      1.14551195      0.00000439
H      -1.12967591      1.78094227      0.00000832
H       0.12548196     -2.06822124     -0.00001331
H       2.26814563      1.60195613      0.88330563
H       0.89532022      2.26154641     -0.00000042
H       2.26813866      1.60195649     -0.88331496
H       2.79541177     -0.64414772     -0.00007728
