16
b3lypvtz=-204444.68228044
C       0.46631249      2.00532648      0.24086908
C       0.11573524      0.64829484     -0.33654053
C       1.05618392     -0.53876004     -0.09813875
O       2.23649630     -0.70746223     -0.16774380
C      -0.14444282     -1.38979072      0.31535020
N      -0.93633700     -0.13925948      0.36162067
C      -2.26428029     -0.15965410     -0.21429154
H       1.35425978      2.40457725     -0.25186940
H       0.66500627      1.92630216      1.30938742
H      -0.35060327      2.71402346      0.09454123
H      -0.07979715      0.72852268     -1.41906790
H      -0.07429859     -1.94141678      1.25436764
H      -0.43479027     -2.08215289     -0.48926300
H      -2.91488023     -0.80717150      0.37505001
H      -2.69191995      0.84353458     -0.19470047
H      -2.27520741     -0.51901073     -1.25774388
