14
b3lypvtz=-203669.02422663
C       1.46337777      0.60326930      0.50692661
C       1.42872951     -0.82567889      0.02448916
N       0.44381707     -1.36849238     -0.55917038
C      -0.68906068     -0.51995551     -0.82180076
C      -1.75746342     -0.31288841      0.22432273
C      -0.81089428      0.80295491     -0.12852092
O       0.17747129      1.11079134      0.82396556
H       1.96017246      1.22508715     -0.25371513
H       2.05546719      0.67528560      1.41966830
H       2.32341142     -1.42695572      0.18700970
H      -1.02622627     -0.60245921     -1.84680073
H      -2.78679864     -0.25156243     -0.10160006
H      -1.59895353     -0.78112943      1.18594141
H      -1.18304989      1.67173363     -0.66071549
