15
b3lypvtz=-191185.00581739
C      -2.54962768      0.04344152     -0.09752397
C      -1.45141930     -0.70862403     -0.01827068
N      -0.13325945     -0.24849322      0.03043212
C       0.11249865      1.10933526      0.29822842
C       1.07635249      1.87854010     -0.20342634
N       0.79449310     -1.24985321     -0.05176977
C       2.04746457     -1.04621516      0.04868659
H      -3.51578874     -0.43704876     -0.09294206
H      -2.52873623      1.11982585     -0.18188040
H      -1.49711785     -1.78746371      0.01426683
H      -0.60726389      1.52560991      0.99511708
H       1.15289400      2.90490836      0.12462640
H       1.78266056      1.54318729     -0.94673010
H       2.52235501     -0.08248473      0.19291584
H       2.66895074     -1.93176146      0.01558104
