9
b3lypvtz=-238178.6454317
F       2.17062296     -0.00000225     -0.00018379
C       0.84976744     -0.00000112      0.00024909
N       0.26999361      1.18354051      0.00004449
C      -1.06079490      1.11760433     -0.00001774
N      -1.78363000      0.00000138     -0.00001560
C      -1.06079712     -1.11760280     -0.00000999
N       0.26999145     -1.18354151      0.00005185
H      -1.59669880      2.05954915     -0.00006609
H      -1.59670264     -2.05954669     -0.00005422
