14
b3lypvtz=-227012.59918902162
C       2.06084049      0.25828613      0.78685625
C       0.83207754     -0.22415053      0.67009363
C      -0.13181095      0.16477843     -0.41703706
C      -1.30476866      0.95602522      0.21002099
O      -1.23541275      2.12154487      0.48070325
O      -2.39371569      0.20774017      0.44544595
N      -0.66620637     -1.04774083     -1.06614870
H       2.45668243      0.98328456      0.08646481
H       2.70959228     -0.04556155      1.59738123
H       0.45476750     -0.94135036      1.39330199
H       0.36513019      0.84912865     -1.10791514
H      -0.99896143     -0.84476923     -2.00151139
H      -2.19401576     -0.67435009      0.06553345
H       0.04580119     -1.76286544     -1.14318923
