20
b3lypvtz=-182668.81147563
C      -1.91505259     -1.70567721     -0.32904710
C      -1.04175807     -1.03228119      0.40936077
C       0.05988908     -0.15105854     -0.10907435
C      -0.08588904      1.29925728      0.39089517
C      -1.28111141      2.04511856     -0.19969238
C       1.43046843     -0.74117014      0.28112691
N       2.53048665      0.00004251     -0.34472306
H      -1.89855184     -1.65881332     -1.41200957
H      -2.67992752     -2.32647280      0.11941349
H      -1.10431775     -1.10915439      1.49345677
H       0.00481134     -0.14482836     -1.20469611
H      -0.16383777      1.28437407      1.48368982
H       0.83807392      1.82731684      0.15331827
H      -1.20444915      2.10808985     -1.28792332
H      -2.22483216      1.55034256      0.03500591
H      -1.33364325      3.06497321      0.18526915
H       1.55223531     -0.66627393      1.36549893
H       1.43128620     -1.81101833      0.03572831
H       2.57179795     -0.20331849     -1.33696161
H       3.41961866     -0.28552017      0.04644699
