19
b3lypvtz=-171853.11946624
C      -2.41582975      0.00558624      0.25861201
C      -1.02453200     -0.06141116     -0.38256862
C      -0.28371096      1.24435970     -0.22277152
C       1.00898649      1.34027550      0.07771611
C       1.91249724      0.15074724      0.25842891
C       1.26744582     -1.14015525     -0.25727199
C      -0.19775384     -1.22948321      0.17347453
H      -2.95658432     -0.93269817      0.11850122
H      -2.34053068      0.19424175      1.33193647
H      -3.01563238      0.80577579     -0.17965784
H      -1.17236845     -0.23198913     -1.45784384
H      -0.86560826      2.15115524     -0.35901735
H       1.45497735      2.32200712      0.19963747
H       2.16790944      0.04678398      1.32027720
H       2.86293476      0.33065136     -0.25257915
H       1.82559936     -2.00954478      0.09662995
H       1.32107946     -1.15644614     -1.35025136
H      -0.25317867     -1.21124644      1.26756739
H      -0.63629359     -2.17811564     -0.14590361
