12
b3lypvtz=-249548.0388867
N      -1.80722077      1.19851629     -0.46128092
C      -1.37986365     -0.01218531      0.08746431
C      -0.12099932     -0.35207389      0.35290922
O       0.24856910     -1.41214928      1.10953340
O       0.90787027      0.55050427     -0.00964611
C       2.04372806      0.04357915     -0.51072843
O       2.27414063     -1.12126992     -0.70679345
H      -2.60512413      1.11035106     -1.07160017
H      -1.07339765      1.73570090     -0.89812614
H      -2.15363474     -0.69271691      0.41209251
H       0.92002453     -1.90852916      0.61504400
H       2.74600767      0.86037280     -0.71296823
