16
b3lypvtz=-227754.12884114
N      -1.35953745     -1.40021254     -0.04916108
C      -0.69702113     -0.34155688     -0.26586297
C      -1.17469188      1.05329222      0.09994016
O      -2.48622623      1.08569125      0.63534378
C       0.67443527     -0.44056934     -0.89708963
C       1.78067484     -0.64127819      0.13360388
O       1.86867410      0.53517710      0.93972433
H      -2.23400713     -1.16471549      0.42692460
H      -0.50362622      1.45475398      0.86118021
H      -1.08126617      1.70572880     -0.77695721
H      -3.11648978      0.96927427     -0.08233790
H       0.90149618      0.45486950     -1.48127590
H       0.67563506     -1.29911829     -1.56905457
H       2.72865190     -0.82268895     -0.38522750
H       1.54744580     -1.51886647      0.74432271
H       2.47605284      0.37031902      1.66602709
