14
b3lypvtz=-229601.64232202
C      -2.42469743     -1.17014438     -0.00000352
C      -1.83682111      0.20752690     -0.00000616
C      -0.54197171      0.50781175     -0.00000101
F      -0.14986755      1.79675137     -0.00000256
N       0.54593213     -0.35096509      0.00000846
C       1.88394367      0.00770581      0.00000381
N       2.88744153     -0.77082725     -0.00000107
H      -3.05521338     -1.33094301      0.87827281
H      -1.67218649     -1.96024387      0.00004728
H      -3.05513989     -1.33098224     -0.87832588
H      -2.51221472      1.05171690     -0.00001471
H       0.33276105     -1.33521463     -0.00000094
H       2.04211201      1.08030760      0.00000380
H       2.61864389     -1.75618987     -0.00000132
