14
b3lypvtz=-203651.26023664
C      -0.28046757      0.87561838      0.98044576
C      -0.94531040      0.86694741     -0.34938803
C       0.10158504     -0.20130717     -0.01019741
C      -1.07757891     -1.16038977     -0.16740604
O      -2.01328874     -0.06970836     -0.40342560
C       1.44856143     -0.43015482     -0.55790758
N       2.54614741      0.11562875     -0.22885240
H       0.45990824      1.65350160      1.11934460
H      -0.85447681      0.62167188      1.86383962
H      -0.93060456      1.67722234     -1.06522427
H      -0.99907543     -1.78576258     -1.05867620
H      -1.35497940     -1.76637451      0.69747653
H       1.48652129     -1.16485806     -1.36714436
H       2.41305841      0.76796490      0.54711540
