15
b3lypvtz=-193608.0318876
C       3.29910714     -0.25985969     -0.23182982
C       1.88519694     -0.04204642      0.04008816
C       0.72181477      0.15421607      0.27023919
C      -0.70623737      0.35555025      0.51347150
C      -1.29736108      1.55205409     -0.23904659
C      -1.44909966     -0.95001558      0.21439986
O      -2.45695669     -1.02298636     -0.43402083
H       3.68921933     -1.08961944      0.36057039
H       3.46644551     -0.49309465     -1.28499836
H       3.88558599      0.62816171      0.01166717
H      -0.84441494      0.50767304      1.59430821
H      -0.79309928      2.47016315      0.05805878
H      -1.17864707      1.42308079     -1.31375939
H      -2.36120850      1.64334778     -0.02598760
H      -0.98012610     -1.85074573      0.65748833
