12
b3lypvtz=-223797.20694755
N      -3.18189332     -0.10150720     -0.30147982
N      -2.11676246     -0.40779277      0.23754415
N      -1.07503548      0.46282592     -0.20434464
C       0.01571741      0.15351918      0.37330060
C       1.25852382      0.92937759      0.09664880
C       2.48136302      0.07657044     -0.16722986
O       2.50928452     -1.12332892     -0.09936118
H      -3.87318644     -0.76918394      0.06395485
H       0.06326765     -0.67759135      1.07695018
H       1.50348751      1.55999546      0.96329483
H       1.10488641      1.61754913     -0.73801480
H       3.39051735      0.65512447     -0.42840011
