17
b3lypvtz=-191977.06915884
C       0.68121470      1.84681043     -0.28803766
C       0.58530461      0.55672431      0.04480571
C       1.74623588     -0.24838531      0.59316261
N       2.24902370     -1.29548940     -0.30098590
N      -0.56400842     -0.21708026     -0.19526145
C      -1.69674481      0.16203103      0.22605072
C      -2.95137526     -0.59918040     -0.04902318
H      -0.14030087      2.37790969     -0.75004705
H       1.60590754      2.38807668     -0.14308035
H       1.43906966     -0.72853087      1.52627804
H       2.56563665      0.42865541      0.83659950
H       1.48563757     -1.91621121     -0.54621559
H       2.55817926     -0.87583986     -1.17129203
H      -1.79442222      1.08026183      0.81971423
H      -3.66304043      0.02970311     -0.59143246
H      -2.74010918     -1.49085726     -0.63535087
H      -3.43901437     -0.88544992      0.88676673
