17
b3lypvtz=-212896.48637533
N       1.76544130      0.80886725      0.04372865
C       1.75792348     -0.60603335      0.45665912
C       0.48853708     -1.31266127     -0.01980830
N      -0.73039725     -0.78810981      0.56981145
C      -1.37584948      0.13800996     -0.02736196
N      -2.54909717      0.63091005      0.55055798
N      -1.04823284      0.74748058     -1.23557709
H       1.18208506      1.34692431      0.67510981
H       2.69847197      1.19500404      0.12169036
H       1.85135875     -0.73014648      1.54250187
H       2.61797608     -1.09682552     -0.00496930
H       0.56598504     -2.36410458      0.27119224
H       0.46941487     -1.29063274     -1.11791235
H      -3.27355594      0.86857689     -0.11165865
H      -2.88573680      0.00700330      1.26888145
H      -0.04867191      0.80010818     -1.38992082
H      -1.48575224      1.64572919     -1.37342446
