13
b3lypvtz=-247059.06621435
C      -2.17759145     -0.35626285      0.31668831
C      -1.06261485     -0.86048971     -0.61296215
C       0.22466439     -0.22669910     -0.36052661
C       1.27284066      0.31027920     -0.12641928
C       2.56534831      0.93556639      0.10583901
F       3.11434436      0.50007364      1.28275666
F       2.43943876      2.29608787      0.20204660
H      -2.32660251      0.71636921      0.19782453
H      -1.92999006     -0.54963156      1.35982470
H      -3.11528729     -0.86199654      0.08542320
H      -1.34100059     -0.68762689     -1.65616624
H      -0.94705761     -1.94230152     -0.50297249
H       3.28340789      0.72663188     -0.68965623
