12
b3lypvtz=-226247.93524553
O       2.24930161      0.01734817     -0.14494483
C       1.06279929     -0.01606389      0.00771759
C       0.21646728      1.21378615      0.30491702
N      -1.10750403      1.09228955     -0.28849818
C      -1.72039463     -0.13446670     -0.05874259
C      -0.98624740     -1.23276424      0.09668452
O       0.40395587     -1.20463904     -0.01821220
H       0.74174780      2.07491828     -0.09921424
H       0.18350650      1.31270562      1.40200308
H      -1.69578998      1.89873419     -0.15676802
H      -2.79872388     -0.17720221     -0.04451514
H      -1.36552144     -2.22594888      0.25642098
