18
b3lypvtz=-181883.40258348
C       1.84109921     -0.83893406      0.35716047
C       0.57034997     -0.41589978     -0.36366870
C       0.53196731      0.95619176     -1.05853932
N       0.55925622      2.06559118     -0.11460962
C      -0.69324670      1.34753827     -0.28891689
C      -0.69633419      0.00837545      0.46628685
C      -1.92668561     -0.85817288      0.25059364
H       2.64851262     -1.03506892     -0.35188046
H       1.67892992     -1.75072279      0.93642110
H       2.19079692     -0.07145037      1.05155138
H       0.27661357     -1.19257642     -1.07353396
H       0.80489219      1.16208131     -2.08512264
H       1.02629561      1.84044480      0.75912636
H      -1.56565412      1.90376079     -0.60674565
H      -0.50839083      0.12558140      1.53867938
H      -2.15396921     -0.96113196     -0.81306051
H      -2.80388220     -0.42524506      0.73687575
H      -1.78045068     -1.86026271      0.65928280
