13
b3lypvtz=-213724.36309436
C       3.37959146     -0.16522959      0.00000234
N       2.29372540      0.48469722      0.00000150
O       1.18853879     -0.39009472      0.00000231
C       0.01417217      0.29082882      0.00000154
C      -1.15848776     -0.34887163      0.00000228
C      -2.41514651      0.38203318      0.00000101
N      -3.59671849     -0.09584554     -0.00000142
H       3.42297202     -1.25040464      0.00000139
H       4.28703620      0.42296263     -0.00000001
H       0.11803441      1.36819398      0.00000078
H      -1.18394076     -1.43275926      0.00000374
H      -2.32574534      1.47150374     -0.00000304
H      -3.57264059     -1.11824818      0.00000059
