16
b3lypvtz=-202043.5092904
C       3.58742411      0.32724721      0.01699570
C       2.26980649     -0.37103428      0.04297426
N       1.17793661      0.27949915     -0.02462326
N       0.03701267     -0.52429340      0.01722888
C      -1.03352756      0.17702195     -0.07891242
N      -2.26395629     -0.38975611     -0.12623020
C      -3.48452463      0.35583779      0.09949793
H       3.44650189      1.40411157     -0.05620261
H       4.16388556      0.10363461      0.91934903
H       4.18981802     -0.01126746     -0.83104478
H       2.25255774     -1.46046402      0.12047975
H      -1.00218827      1.26389438     -0.15657687
H      -2.28321800     -1.38613947      0.02679366
H      -3.36733154      1.36666529     -0.28974904
H      -4.31047328     -0.11274748     -0.43519859
H      -3.75457653      0.42777228      1.15883257
