13
b3lypvtz=-239459.92294012
O       2.27823614      0.79328035      0.83832900
C       1.94624594     -0.15946205      0.18895235
C       0.73234601     -0.19327104     -0.75073592
O      -0.12938851     -1.21365006     -0.23593672
C      -1.33788645     -0.57415561      0.20077403
C      -0.96830615      0.90544311      0.24064755
O       0.01440546      0.99910396     -0.79592824
H       2.48988071     -1.12539707      0.23976531
H       1.05257469     -0.44927995     -1.76694297
H      -2.13311917     -0.77348771     -0.52188456
H      -1.61893915     -0.97721488      1.17290863
H      -0.53717665      1.19526847      1.20185068
H      -1.78877287      1.57282248     -0.01189915
