15
b3lypvtz=-216880.53483832
C       1.69509547      0.73023728      0.04238095
C       0.38758518      0.01981208     -0.05317903
C       0.03507159     -1.47745073      0.06896854
C      -1.20806996     -0.74716545     -0.45883458
C      -0.99029127      0.36319716      0.59656602
O      -1.52973167      1.62328442      0.36465183
O      -0.32969810      0.02959027     -1.38134841
H       2.12655305      0.58618166      1.03436897
H       1.55822808      1.80047816     -0.11908555
H       2.39757060      0.35021462     -0.70014913
H       0.52543894     -2.12169482     -0.65591486
H      -0.00727277     -1.91062217      1.06891185
H      -2.12900868     -1.14867814     -0.87369883
H      -1.13313706      0.10729256      1.64556230
H      -1.39833338      1.79532313     -0.57920007
