17
b3lypvtz=-191965.55191899
C      -1.73808220      0.98214629     -0.14255665
C      -2.02087670     -0.40205947      0.37661076
C      -0.63243737      0.16296971      0.47080636
C       0.47545971     -0.41209886     -0.38964860
C       1.57099513      0.61802435     -0.58490089
N       2.78650859      0.35622593     -0.34833352
N       0.93304369     -1.69702356      0.12877052
H      -1.72791531      1.12602502     -1.21487088
H      -2.11595650      1.82852481      0.41373460
H      -2.59680671     -0.50022392      1.28597277
H      -2.18260551     -1.19332820     -0.34211375
H      -0.30486564      0.46973457      1.45896793
H       0.04963445     -0.58000420     -1.39048002
H       1.22656922      1.58899083     -0.96203311
H       3.38530389      1.15615768     -0.54751913
H       1.87826134     -1.86308713     -0.20283037
H       1.01376995     -1.64097382      1.13851981
