15
b3lypvtz=-263536.52520286
O       2.13383811     -1.20744333      0.99900668
C       1.02503643     -0.33207021      1.11076100
C       0.43349940     -0.00989155     -0.25066030
O      -0.00221956     -1.25683815     -0.80955244
C      -0.75874307      0.94428703     -0.19007471
O      -1.08220360      1.22598394     -1.54432348
O      -1.84840217      0.38834471      0.49408953
H       1.84177104     -1.96262171      0.47591444
H       1.39082355      0.58332022      1.57792033
H       0.24560235     -0.75239183      1.75574421
H       1.20744461      0.43495011     -0.88265045
H      -0.24262336     -1.09418898     -1.72862099
H      -0.50556501      1.86431289      0.34474711
H      -1.91805413      1.70488683     -1.55024181
H      -1.92010458     -0.53063999      0.19804087
