14
b3lypvtz=-180346.81618146
C       2.12513828      1.78081548     -0.22759518
C       1.18559004      1.03877130     -0.13793295
C       0.04337385      0.17058186     -0.03657464
C       0.09730584     -0.95863836      0.99497981
C       0.22497091     -1.29403804     -0.44458789
C      -1.28431648      0.82198210     -0.30827423
N      -2.43918204      0.30541085     -0.27727851
H       2.95802400      2.43387530     -0.30652585
H      -0.83399628     -1.17887439      1.49937917
H       0.97846937     -0.99726570      1.61783444
H       1.19543361     -1.56781002     -0.83080842
H      -0.61750045     -1.74777417     -0.94904761
H      -1.21506584      1.87941937     -0.56490674
H      -2.41824478     -0.68645558     -0.02866136
