12
b3lypvtz=-200511.34771496
C      -1.40395334      0.32323958     -0.26257775
C      -0.27499780      0.82534497     -1.10280074
N      -0.18740433     -0.45243566     -0.41069896
C       0.68222593     -0.68519617      0.65343311
N       0.40570082     -1.05396198      1.83698947
C       2.08241752     -0.55908216      0.27958724
N       3.18000010     -0.42488596     -0.03760435
H      -1.57202019      0.81186531      0.69106658
H      -2.28531217     -0.09383357     -0.73174637
H      -0.33151817      0.76561947     -2.18133254
H       0.30836851      1.65020826     -0.71146197
H      -0.60350687     -1.10688209      1.97714630
