13
b3lypvtz=-216139.67514669
C      -1.71094813      0.69635740      0.03610171
C      -0.88283962     -0.57566812     -0.17722897
O      -1.20549244     -1.22404574     -1.40868599
C       0.54640018     -0.28164398     -0.18604389
C       1.71960754     -0.01053729     -0.14488353
C       3.12868274      0.28486706     -0.15505861
O       3.72033438      0.81816432      0.75492948
H      -2.77181253      0.44195015      0.07275827
H      -1.44258408      1.18164125      0.97429094
H      -1.54471510      1.39297187     -0.78403999
H      -1.06349803     -1.26010676      0.66260236
H      -2.14250437     -1.44511376     -1.39033995
H       3.64936945     -0.01873640     -1.08100183
