13
b3lypvtz=-242074.67058054
C       2.68398456     -0.79028635     -0.00000756
C       1.40214448     -0.01679862     -0.00001357
O       1.52459361      1.34807748     -0.00000736
N       0.27128287     -0.58991686     -0.00001889
C      -0.90350664      0.15910103     -0.00001802
C      -2.07045878     -0.47754753     -0.00002279
F      -3.23527360      0.19652095      0.00001497
H       3.28250413     -0.54766984      0.88275863
H       3.28251036     -0.54767108     -0.88276990
H       2.46910100     -1.85425063     -0.00000751
H       2.45422550      1.59645171     -0.00001506
H      -0.88191777      1.24402563      0.00000407
H      -2.19304372     -1.55120288      0.00000299
