14
b3lypvtz=-203701.348457
N       2.12497974      0.16312771     -0.01415871
C       0.78009090     -0.02683914     -0.54741172
C      -0.09297771      1.19544144     -0.46727232
C      -1.29992927      0.93786666      0.03384785
C      -1.48260735     -0.50903379      0.40342256
C      -0.08544047     -1.09027437      0.17503639
O       0.30906098     -2.16773741      0.53724777
H       2.07439809      0.43209573      0.96300721
H       2.62703220     -0.71800587     -0.04397933
H       0.88882236     -0.34950997     -1.59115398
H       0.25419540      2.16422977     -0.79841696
H      -2.08151866      1.67418759      0.16226588
H      -2.19958509     -1.02761159     -0.24263356
H      -1.81662112     -0.67793677      1.43019892
