18
b3lypvtz=-181896.79000238
C      -2.19166922     -0.13568842     -0.00440404
C      -0.83721986      0.15551538      0.63143225
C       0.05404994      1.15066906     -0.14614736
C       1.46726944      0.77985853      0.28229966
C       2.12981392     -0.36213011     -0.38554761
N       1.46157812     -0.56727996      0.90454209
C       0.07455126     -1.07558315      0.79296115
H      -2.07145146     -0.53999531     -1.01261710
H      -2.75773778     -0.86307553      0.58113275
H      -2.79866037      0.76866348     -0.07869318
H      -1.00108399      0.57203446      1.62989519
H      -0.08446368      1.02836239     -1.22390804
H      -0.18421278      2.18687074      0.09406690
H       2.06860512      1.52695174      0.78637716
H       3.20877503     -0.46246063     -0.36498432
H       1.65588804     -0.76585222     -1.27563791
H      -0.02789843     -1.75076867     -0.06369580
H      -0.16613331     -1.64599177      1.69082820
