17
b3lypvtz=-194370.52355017
C      -2.07015928     -1.28536999      0.25882214
C      -0.84362192     -1.23694819     -0.25486720
C       0.15945883     -0.17985288     -0.06121301
C      -0.05240492      1.14330459      0.01695298
C      -1.36917304      1.85196608     -0.10163775
O       1.40315717     -0.76553211     -0.01897186
C       2.54158982      0.06453170      0.10505963
H      -2.45690969     -0.51724836      0.91344991
H      -2.72315307     -2.12207988      0.04941590
H      -0.48828319     -2.06870762     -0.85479526
H       0.80616595      1.78627042      0.15612616
H      -2.11744266      1.24843043     -0.61361687
H      -1.24580334      2.78352286     -0.65831422
H      -1.78112325      2.12533147      0.87543484
H       2.52947609      0.62638943      1.04390719
H       3.40220228     -0.60021727      0.09572135
H       2.61605523      0.76866533     -0.72940392
