12
b3lypvtz=-223844.93606487
C       2.44012424      0.34779773     -0.00001764
O       1.41244456     -0.65784897      0.00000886
C       0.16435079     -0.19838521      0.00001865
N      -0.25222120      1.04730702      0.00003859
C      -1.61149049      0.89763711      0.00006136
N      -2.04763956     -0.34102262      0.00001545
N      -0.87882716     -1.05025760      0.00004715
H      -0.87754326     -2.05492615     -0.00004400
H       2.35931199      0.97326322     -0.88792449
H       2.35931191      0.97330949      0.88785598
H       3.37880095     -0.19792686     -0.00000368
H      -2.28937877      1.73506884     -0.00004924
