13
b3lypvtz=-239478.01580155
C       2.76250803     -0.23979784      0.00019319
C       1.32396144      0.20452312      0.00012835
O       0.94428972      1.34591746      0.00008590
O       0.50603619     -0.87739742      0.00012009
C      -0.88211923     -0.79441322      0.00005499
C      -1.66262181      0.28594739     -0.00001512
O      -3.02612449      0.22333892     -0.00007441
H       2.96555094     -0.85250820     -0.87850863
H       3.40741643      0.63347221      0.00027605
H       2.96544954     -0.85261001      0.87884624
H      -1.29484850     -1.79463233      0.00006874
H      -1.29641604      1.29658248     -0.00002927
H      -3.31772524     -0.69594756     -0.00005912
