15
b3lypvtz=-191205.56078754
C       3.27236530     -0.66615874     -0.00011812
N       2.43910177      0.29498468     -0.00000938
C       1.08407702     -0.02198181     -0.00004571
C       0.15358016      0.94308856      0.00002888
C      -1.28827011      0.70488519      0.00002023
N      -1.80532365     -0.45518278     -0.00001791
C      -3.25793839     -0.55001447      0.00001241
H       4.33580232     -0.44671474      0.00028593
H       2.97241736     -1.71991223      0.00022653
H       0.78579089     -1.07049344     -0.00017309
H       0.48762169      1.97323480      0.00009856
H      -1.91184762      1.61017672      0.00014085
H      -3.55630750     -1.59679539      0.00014779
H      -3.69160375     -0.07280079      0.88489014
H      -3.69160948     -0.07304357     -0.88499211
