13
b3lypvtz=-237086.52415318
C      -1.58496019      1.19348897      0.41862407
C      -1.22073804     -0.05923683      0.10341243
O      -2.15075190     -0.92181043     -0.40040511
N       0.01802818     -0.66759194      0.26165260
C       1.12242752     -0.06808947      0.00664686
N       1.32774653      1.20065096     -0.41797849
O       2.28355828     -0.73564829      0.17405946
H      -2.60908126      1.50416060      0.28336291
H      -0.89920384      1.86862134      0.90352995
H      -1.70060617     -1.76527478     -0.52696070
H       2.22074864      1.41560425     -0.82665745
H       0.51537447      1.70716661     -0.73618034
H       2.04115377     -1.61666201      0.48961878
