16
b3lypvtz=-181110.97891431
C       2.63304300     -0.24109070     -0.10331427
C       1.34937997     -0.52135965      0.09210215
C       0.22412356      0.43637352     -0.10647140
C      -0.95025334      0.06887755     -1.09155426
C      -1.94459593      0.27431844      0.05455614
N      -1.65496786     -0.61105033      1.17117630
C      -0.83218905      0.57747328      1.01328153
H       2.95490269      0.73928171     -0.43572730
H       3.40788979     -0.97835141      0.06070557
H       1.08166808     -1.52295248      0.42044821
H       0.62040788      1.41803280     -0.36926703
H      -0.93562768     -0.93506027     -1.52131571
H      -1.03992610      0.79327968     -1.89956749
H      -2.93594399      0.69926599     -0.01642066
H      -1.19407888     -1.47229203      0.89308453
H      -0.78383213      1.27525390      1.83828371
