12
b3lypvtz=-200524.57616688
N      -2.48044463      0.38154533      0.00008849
N      -1.66788657     -0.56800499      0.00011172
C      -0.32314617     -0.19189609      0.00001274
C       0.68815135     -1.13419235     -0.00001117
N       1.87025358     -0.46306520     -0.00000350
H       2.77728078     -0.89340713      0.00000425
C       1.63818817      0.89831484     -0.00001437
C       0.28771497      1.10114665      0.00000419
H      -3.41733158     -0.04092335     -0.00007671
H       0.62817660     -2.20796635     -0.00001475
H       2.45624138      1.59745914     -0.00003260
H      -0.22684088      2.04483550      0.00001671
