12
b3lypvtz=-247138.73554507
N      -2.24718632     -0.81381739     -0.26597059
N      -1.61765964      0.42764864     -0.21940276
C      -0.39756428      0.49271231      0.09731833
N       0.29634135      1.67682727      0.27213402
O       0.28814055     -0.67626958      0.48631650
C       1.56720045     -0.89990548      0.11841557
O       2.25144280     -0.18795551     -0.55851637
H      -3.23210682     -0.66313088     -0.10247880
H      -1.87910266     -1.47350239      0.41330583
H       1.20510165      1.67677471     -0.17337894
H      -0.26982472      2.46553745     -0.00556108
H       1.88529363     -1.85981414      0.54138729
