12
b3lypvtz=-202940.4893419
C       0.02787853      1.70851754     -0.00000469
C       0.44218744      0.44200927     -0.00002107
C       1.89393997      0.16114263     -0.00001779
O       2.36345098     -0.95238769      0.00003544
C      -0.44937031     -0.77944046     -0.00001709
C      -1.87308464     -0.47301295      0.00000417
N      -2.99287534     -0.21090113      0.00001911
H       0.74916915      2.51622083     -0.00000902
H      -1.01953076      1.97821660      0.00001327
H       2.54016294      1.06028098      0.00003322
H      -0.21484104     -1.40059810      0.86824221
H      -0.21486693     -1.40058653     -0.86829177
