15
b3lypvtz=-191173.0874421
N       2.13995212      0.19867099     -0.72946406
C       0.93623991      0.01750913     -0.07379443
C       0.58496585     -0.50702226      1.10696534
N      -0.90977135     -0.52645190      1.11657079
C      -1.16831230      0.85995231      0.52398092
C      -0.42859772      0.29922126     -0.72023774
C      -1.15000513     -1.01789867     -0.31390251
H       2.17531819      0.99520790     -1.34720399
H       2.95911084      0.14550293     -0.14278279
H       1.14724461     -0.90149827      1.93555881
H      -0.71057724      1.67802595      1.07679916
H      -2.23708572      1.02649792      0.38089079
H      -0.45170470      0.74151837     -1.71758561
H      -0.67008068     -1.96461805     -0.55213915
H      -2.21679668     -1.04481761     -0.54345552
