15
b3lypvtz=-216918.15928353
C       1.90652818      1.05111488      0.17851366
C       1.16949057     -0.23237150     -0.10199964
O       1.66625101     -1.32807678      0.02953873
C      -0.26189293     -0.11507603     -0.60524194
C      -1.32721227     -1.00484280      0.05945862
C      -2.04022010      0.32319953      0.36794218
O      -0.94565546      1.09377640     -0.19554489
H       1.88714991      1.69789766     -0.70203032
H       2.93222818      0.83214426      0.46364582
H       1.39743288      1.60307050      0.97017649
H      -0.22590305     -0.19695144     -1.69933695
H      -0.96123427     -1.55391427      0.92334673
H      -1.85248339     -1.68707488     -0.60303987
H      -2.96761422      0.49248815     -0.18317513
H      -2.19675804      0.56037632      1.42160551
