17
b3lypvtz=-191982.88564456
C       1.08252437      1.51604589     -0.70018569
C       0.98907602      0.32960212     -0.08061231
N       1.95259750     -0.13903193      0.80185438
C      -0.17817227     -0.58905823     -0.30944082
N      -0.07678799     -1.85966984     -0.34908507
C      -1.55025083      0.01935246     -0.47248102
C      -2.10890249      0.57317114      0.84578743
H       1.94666294      2.15371593     -0.56713269
H       0.31822493      1.85807418     -1.37687814
H       2.89272031      0.19812226      0.68425286
H       1.89137878     -1.09832867      1.09302764
H       0.89128834     -2.16653825     -0.24121055
H      -2.20255842     -0.76302613     -0.85771554
H      -1.51786999      0.81910048     -1.21453738
H      -3.10088368      0.99845848      0.68863668
H      -1.46774739      1.35511481      1.25329384
H      -2.19705113     -0.21894868      1.59053037
