17
b3lypvtz=-215264.16683159
N      -2.62904054     -0.03247467     -0.18770654
C      -1.43996022     -0.57539601      0.47597265
C      -0.19707307     -0.28354033     -0.35574370
N       0.08261188      1.15125877     -0.59674644
C       1.11107511      1.16475975      0.47071967
C       1.14089718     -0.38402923      0.42547863
O       2.22463175     -0.95973454     -0.27268444
H      -3.44505669     -0.11736834      0.40568372
H      -2.82911701     -0.54832112     -1.03740331
H      -1.35139482     -0.08067335      1.44730368
H      -1.48574886     -1.65729372      0.66987526
H      -0.22306142     -0.87901762     -1.27607330
H      -0.72211910      1.75300217     -0.46913389
H       2.04694948      1.65702358      0.19631014
H       0.77781109      1.55973920      1.43599033
H       1.09564115     -0.90099400      1.38242613
H       2.30565309     -0.51333554     -1.12287760
