15
b3lypvtz=-216902.22890132
C       3.22940225     -0.31171301     -0.14830085
C       1.83222674      0.01698622      0.09224154
C       0.67358286      0.26944297      0.28802850
C      -0.72930847      0.60130378      0.53137699
O      -1.27340819      1.42614094     -0.51489320
C      -1.64524537     -0.62551529      0.59733182
O      -1.68638462     -1.33060900     -0.62381990
H       3.33583577     -1.34690815     -0.47800344
H       3.65449395      0.33049067     -0.92211263
H       3.82620144     -0.18251260      0.75661032
H      -0.80741856      1.13052197      1.49002456
H      -0.57724128      2.00781365     -0.83423092
H      -2.64279635     -0.27514836      0.89043416
H      -1.28233213     -1.31308592      1.36066861
H      -1.84663605     -0.67527587     -1.31337756
