16
b3lypvtz=-204447.12474811
N      -1.67200232      1.19829340      0.42638814
C      -0.65469161      0.96383581     -0.60260176
C       0.40561878      0.00123967     -0.11153162
C      -0.02052426     -1.39919450      0.08618667
O      -1.14193734     -1.81301582     -0.09508802
C       1.47318251      0.49745312      0.85115979
C       1.85278127      0.18791124     -0.55188913
H      -2.30909469      1.92530782      0.12358125
H      -2.22481878      0.35655251      0.54290967
H      -1.06320307      0.57162525     -1.54362466
H      -0.17876039      1.91942253     -0.83249446
H       0.78380800     -2.08573812      0.42963177
H       1.80250916     -0.17370985      1.63301057
H       1.37271158      1.52854153      1.15777865
H       2.03710015      1.00375470     -1.23679242
H       2.44216701     -0.69893230     -0.74357144
