11
b3lypvtz=-269589.24475965
C      -1.18065514     -0.22201823      0.10416199
C      -2.31522772      0.46081300      0.09654076
F      -3.49509967     -0.19209724      0.10566780
O       0.02003073      0.43004001      0.09508174
C       1.15467905     -0.33115346      0.10342229
C       2.34807532      0.24261394      0.09557262
F       3.46156708     -0.51801982      0.10388763
H      -1.16431455     -1.30480761      0.11766228
H      -2.40366650      1.53677966      0.08314929
H       1.03769345     -1.40768282      0.11652342
H       2.53691795      1.30553256      0.08260060
