16
b3lypvtz=-204448.7151395
C       2.14522576     -0.06693934     -0.29371634
C       0.76873966     -0.49005859      0.11290440
C      -0.35911711      0.10809348     -0.28618486
C      -1.69761032     -0.29370635      0.09162894
C      -2.79959399      0.33502119     -0.33323378
O      -4.08476093      0.02070569     -0.02377313
N       2.98029587      0.17860405      0.89147930
H       2.07376757      0.78993283     -0.97850376
H       2.62390068     -0.87744088     -0.85418005
H       0.72090690     -1.33841403      0.78963519
H      -0.28495141      0.96537792     -0.95168232
H      -1.79750476     -1.15004294      0.75429677
H      -2.75991974      1.19134952     -0.99450414
H      -4.09725030     -0.74347584      0.56449581
H       2.63422738      0.98541437      1.39809204
H       3.93364474      0.38557893      0.61757213
