18
b3lypvtz=-205197.01221147
C      -0.07606057      1.92646520      0.47447317
C       0.36375268      0.56281189      0.02170419
N       1.62728467      0.40138262     -0.06146355
O       1.98844873     -0.90785401     -0.46004855
C      -0.65702212     -0.52411219     -0.25540219
C      -1.95827616      0.01037198     -0.86371014
C      -0.92706014     -1.32306752      1.03283998
H       0.79260188      2.53293411      0.72034737
H      -0.65284337      2.43499953     -0.30057166
H      -0.71734371      1.85616983      1.35674164
H       2.94731908     -0.84492913     -0.49691377
H      -0.20058071     -1.20610640     -0.97227321
H      -1.77391689      0.57489400     -1.77922131
H      -2.61673518     -0.82252040     -1.11578359
H      -2.49947538      0.65720098     -0.17099579
H      -1.36435211     -0.68983640      1.80808726
H      -0.00564544     -1.75477709      1.42183605
H      -1.62823726     -2.13572901      0.83347911
