17
b3lypvtz=-171073.33414457
C       2.06617121      0.45594829     -0.47497527
C       0.70140824      0.13306774      0.08094687
C      -0.26547061      1.23742042      0.36864352
C      -1.52234634      0.89760464      0.08909355
C      -1.61606553     -0.49964278     -0.48340788
C      -0.17848300     -1.00525802     -0.41524990
C       0.48336274     -1.09920352      0.93469247
H       2.62076600     -0.45431331     -0.70813349
H       2.65973723      1.02725662      0.24375421
H       1.99208420      1.04751256     -1.39054804
H       0.04696374      2.18909654      0.77987263
H      -2.39046337      1.51887260      0.26435686
H      -1.98697746     -0.48227829     -1.51351197
H      -2.30904346     -1.12994802      0.08300449
H       0.17871781     -1.66692390     -1.19263457
H      -0.12483550     -1.00622978      1.82550856
H       1.31081610     -1.79224878      1.02243796
