14
b3lypvtz=-203632.75688988
N       0.75076469      0.30014314     -0.21478443
C       0.63618582      1.67901090     -0.52144353
C       1.11808037      2.84338784      0.33888446
C       0.41259496      3.73866110     -0.70637843
O       1.22332920      3.54952590     -1.91280679
C       0.67803575      2.23109076     -1.94795013
C      -0.51245540      2.53634000     -1.10266752
H       0.04785465     -0.01839472      0.43960736
H       0.72996429     -0.29367555     -1.03199723
H       0.60234478      2.86408995      1.29972246
H       2.19126669      2.99558054      0.46950024
H       0.13568799      4.77010089     -0.52192498
H       0.80187838      1.62670795     -2.83540631
H      -1.57473217      2.39543130     -1.23315517
