15
b3lypvtz=-216896.80648528
O       2.88598254      0.45088562     -0.47287820
C       1.86282169      0.17510337      0.48454451
C       0.74609963     -0.64193904     -0.09101310
C      -0.52999051     -0.29420267     -0.06014747
C      -1.34001466      0.86839706      0.46898102
O      -2.55416429      0.27015980     -0.05213351
C      -1.82901434     -0.88327707     -0.55349949
H       2.47635845      0.88121966     -1.23027257
H       1.47351028      1.10138143      0.92291404
H       2.36636611     -0.37569796      1.28189791
H       1.03602058     -1.57290060     -0.56943796
H      -1.37606813      0.97602655      1.55726675
H      -1.13779250      1.84554143      0.01924275
H      -2.15131956     -1.80942380     -0.06793694
H      -1.92869530     -0.99137380     -1.63762773
