13
b3lypvtz=-213742.45550399
C      -1.88859566     -1.31141655      0.22217983
C      -1.35233215     -0.09335182      0.23242580
C       0.02463246      0.24641317     -0.15889856
C       0.42140039      1.66726112     -0.06229703
O      -0.33058714      2.56618758      0.24516877
N       0.82502620     -0.70311412     -0.53872497
N       2.09168610     -0.49818033     -0.89939447
H      -2.91267146     -1.46701855      0.53174448
H      -1.32326614     -2.17931018     -0.09046431
H      -1.94178389      0.75792796      0.54710914
H       1.48501019      1.90077912     -0.26202982
H       2.49566538     -1.29142128     -1.36667837
H       2.40571573      0.40504388     -1.22664048
