9
b3lypvtz=-233101.26690614
N       1.00369819      0.05116768      0.03638644
C       0.46901467      1.18347360     -0.04904199
N       1.15642329      2.40526129     -0.13820038
C       0.46439039      3.46360253     -0.21701143
N      -0.95550543      3.51938231     -0.22301086
N      -1.60761125      2.48746352     -0.14915192
O      -0.91436593      1.23102857     -0.05661488
H       2.01583707      0.15368131      0.03105849
H       0.93801901      4.43463919     -0.28771347
