15
b3lypvtz=-191202.29690369
C      -1.85582824     -0.12534677      0.56282580
C      -1.25312251      0.65002607     -0.55670147
N      -1.16513204     -0.82958890     -0.52567171
C       0.24854062     -1.15427231     -0.26482958
C       0.97107812      0.17068383     -0.13455006
C       0.11693600      1.18358364     -0.33176949
N       2.33874674      0.19111406      0.08949981
H      -1.36401038     -0.04942909      1.52744784
H      -2.92281767     -0.31362442      0.60010118
H      -1.88955535      1.08734022     -1.31822432
H       0.34454313     -1.77174160      0.63487835
H       0.64844951     -1.73814665     -1.10034319
H       0.35822675      2.23643570     -0.31594215
H       2.71581657      1.06245802      0.42793783
H       2.70812876     -0.59949180      0.59296566
