14
b3lypvtz=-201262.80513171
C       1.59987758      1.51079072     -0.03298797
C       0.71819192      0.49974331     -0.04544669
C      -0.72121788      0.65463896      0.05386697
C      -1.60772096     -0.35209787     -0.04318485
N      -2.97943223     -0.22141343     -0.01364771
N       1.16344604     -0.84948310     -0.26865941
N       2.23646424     -1.14774513      0.27454772
H       2.65714951      1.32054639     -0.13304288
H       1.26717789      2.53577966      0.05056529
H      -1.07828025      1.66600816      0.21849300
H      -1.25754189     -1.35971497     -0.22369149
H      -3.50698162     -1.03640002      0.24774436
H      -3.35288953      0.63611712      0.36095574
H       2.44870420     -2.11542980     -0.00957510
