19
b3lypvtz=-195127.38863022
C       3.10582094     -0.41715644     -0.11342128
O       1.79777383     -0.56211279      0.39257956
C       0.90544523      0.43325832     -0.07593768
C      -0.46659438      0.17919808      0.49999565
C      -1.63195131      1.09288582      0.03531880
C      -2.55073386     -0.15616457      0.00903811
C      -1.28024610     -1.04412775      0.00154353
H       3.70831401     -1.22340497      0.30176486
H       3.12604153     -0.48650527     -1.20884171
H       3.54846285      0.54402642      0.17896031
H       1.26436558      1.43183622      0.21803819
H       0.86342786      0.41334318     -1.17599666
H      -0.39725223      0.16983952      1.58966532
H      -1.45695195      1.48374877     -0.96921233
H      -1.91468748      1.92129959      0.68408565
H      -3.24179050     -0.25429686     -0.82725367
H      -3.11393697     -0.26180070      0.93656212
H      -1.27806444     -1.93768934      0.62320432
H      -0.98744261     -1.32617726     -1.01151542
