15
b3lypvtz=-193583.95285561
C      -2.63987622     -0.59759260     -0.01458023
C      -1.49754833     -0.22769504     -0.02523233
C      -0.11100308      0.22158949     -0.00870805
O      -0.02819021      1.64683319     -0.05589729
C       0.82552251     -0.38657419      1.08480817
C       1.93910157     -0.52145307      0.01608852
C       0.86295214     -0.33613698     -1.08310415
H      -3.64972235     -0.92462135     -0.01477432
H      -0.57428096      2.00292326      0.65390950
H       0.46155493     -1.35132745      1.43536341
H       1.01193452      0.26339406      1.93885319
H       2.64434563      0.30647071      0.04551182
H       2.49368939     -1.45758809      0.00581599
H       1.07027522      0.35958413     -1.89341786
H       0.51061724     -1.28114009     -1.49169938
