15
b3lypvtz=-193637.81715189
C       1.44273638      1.61791961      0.00000307
C       0.24604294      0.72199977     -0.00001931
C      -1.05926693      1.09014930     -0.00004793
O      -1.87601746     -0.00000094     -0.00004169
C      -1.05926594     -1.09015041     -0.00002215
C       0.24604360     -0.72199970     -0.00000536
C       1.44273787     -1.61791845      0.00001153
H       2.07052551      1.44900418     -0.87846932
H       2.07047780      1.44901302      0.87851141
H       1.14842589      2.66738595     -0.00001045
H      -1.54908342      2.04810555      0.00001723
H      -1.54908155     -2.04810712     -0.00001576
H       2.07050592     -1.44901878     -0.87847916
H       1.14842834     -2.66738506      0.00002432
H       2.07050004     -1.44899494      0.87850157
