12
b3lypvtz=-252149.31172754
C      -1.46310896     -1.08354419      0.07647401
C      -1.03291212      0.16474471     -0.05770479
N       0.30777944      0.59658374     -0.11716446
C       1.41978560     -0.01240682      0.40804674
N       2.58481032      0.19373166     -0.00822378
F       1.11812439     -0.80886639      1.45452224
O      -1.90624994      1.20598796     -0.21607263
H      -0.77960065     -1.91552781      0.07725340
H      -2.51816591     -1.26845115      0.19941725
H       0.53735755      1.21856325     -0.87937226
H       3.27912734     -0.27685481      0.56189035
H      -1.54694706      1.98603986      0.22389671
