17
b3lypvtz=-191981.8817549
N       2.70717193      0.29700123     -0.04222016
C       1.62682837     -0.60434744      0.02117539
C       0.33694036     -0.26837627     -0.01283153
C      -0.23543899      1.13832871      0.05282349
C      -1.74067312      0.93120617     -0.20387969
C      -1.96444307     -0.52494549      0.23877107
N      -0.72176130     -1.23528973     -0.08910505
H       3.50839213     -0.00771926      0.49130503
H       2.46482042      1.24232527      0.21809819
H       1.90876097     -1.64976722      0.01225104
H      -0.06358021      1.58701999      1.03753894
H       0.21679696      1.80757614     -0.68339691
H      -2.36901374      1.64414778      0.33033280
H      -1.95516775      1.03065397     -1.27028001
H      -2.81908528     -1.00134401     -0.24056557
H      -2.12611475     -0.56741917      1.32042654
H      -0.77874091     -1.65422666     -1.00880858
