14
b3lypvtz=-201302.9775415
C       1.38125369     -1.65590728      0.00000050
C       0.23048713     -0.70708994      0.00003719
N      -1.03445692     -1.12503884      0.00013242
N      -1.73415026      0.00002193     -0.00004143
H      -2.73920873      0.00003880     -0.00016276
N      -1.03442863      1.12506271      0.00015193
C       0.23050519      0.70708283      0.00003386
C       1.38129704      1.65587199      0.00000116
H       2.01409788     -1.51596994      0.87923801
H       1.01817810     -2.68182772      0.00003202
H       2.01405165     -1.51600576     -0.87927663
H       2.01416527      1.51588483      0.87921348
H       2.01406541      1.51599095     -0.87930112
H       1.01824817      2.68180244      0.00008438
