18
b3lypvtz=-181885.40693659
C      -1.81083587      1.17784076      0.24409742
C      -1.11051576      0.09700173     -0.56614977
C      -0.85143158     -1.30899825      0.07990982
C       0.63264385     -1.17876322     -0.26569181
C       0.39387769      0.21811713     -0.84132341
C       1.21394200      0.03020232      0.40418332
N       2.63227196      0.20826724      0.21005780
H      -2.84989218      0.90584286      0.44437206
H      -1.32215835      1.34411713      1.20580913
H      -1.81540102      2.12801863     -0.29518013
H      -1.63852208     -0.04173069     -1.51097857
H      -1.35851163     -2.11411015     -0.44897253
H      -1.07868514     -1.39493111      1.14587057
H       1.27691836     -1.95680356     -0.64838903
H       0.84675115      0.66574388     -1.71510056
H       0.79009808      0.33370260      1.36276505
H       3.16043846     -0.29877884      0.90992897
H       2.88901208      1.18526157      0.28479164
