14
b3lypvtz=-201294.42516468
C      -2.53990528     -0.38261499      0.07493901
N      -1.53331344      0.63956711     -0.13881661
C      -0.19380538      0.26429383     -0.04220662
C       0.34970276     -1.00735120     -0.03353951
N       1.70354107     -0.83594977      0.01011222
H       2.40907011     -1.54950814      0.02286328
N       2.07150641      0.44742428      0.04167725
C       0.93026329      1.12584698      0.00631409
H      -2.43982619     -0.90507808      1.03726303
H      -2.48244914     -1.12998264     -0.71945205
H      -3.52842980      0.07165703      0.02790001
H      -1.73111222      1.49786393      0.35142406
H      -0.10094505     -1.98280138     -0.06075165
H       0.94174386      2.20402905      0.01261048
