15
b3lypvtz=-212133.33474222
C      -0.60371587      1.99028327      0.21405947
N      -1.23681403      0.74751728     -0.19901623
C      -0.73623755     -0.51379891     -0.01548870
N      -1.71248325     -1.49486478     -0.00669060
N       0.49872882     -0.86594394      0.12642383
C       1.54047700     -0.07515953     -0.32612200
N       2.74813750     -0.12983274      0.07040790
H      -0.18003216      2.54509003     -0.62495180
H       0.19563163      1.77887092      0.91956840
H      -1.33990810      2.62329928      0.71139315
H      -2.19502127      0.80063714     -0.49928864
H      -2.54932286     -1.29966007      0.52114524
H      -1.33169170     -2.41320709      0.15767635
H       1.31753158      0.61289463     -1.14793168
H       2.82255626     -0.82081148      0.82082331
