13
b3lypvtz=-216146.06958746
C      -2.11468345      0.49365022     -0.12557209
C      -1.16374662     -0.61320895     -0.35556781
O      -1.46836653      0.32515966     -1.38445360
C       0.19843851     -0.59633129      0.20941361
C       1.17397782      0.23892351     -0.15730660
C       2.49397427      0.17865207      0.47845189
O       3.41906820      0.90867413      0.20684778
H      -1.78700453      1.35077382      0.45264574
H      -3.17959489      0.28523331     -0.11489529
H      -1.59041664     -1.60167222     -0.50901771
H       0.39471798     -1.33939860      0.97842708
H       1.02330187      0.97822419     -0.93398984
H       2.60033404     -0.60867982      1.25501681
