13
b3lypvtz=-239466.99799021
C      -0.16216180      1.69943398      0.11501949
C       0.33355247      0.49617390     -0.14159669
O       1.63957399      0.28553542     -0.40057614
C       2.30176512     -0.72819672      0.36781736
O      -0.36578148     -0.70539738     -0.25517742
C      -1.69971216     -0.85131511     -0.06925921
O      -2.50009473     -0.00418021      0.18871179
H      -1.21617401      1.87073700      0.22507096
H       0.53491534      2.51998790      0.18392543
H       2.22886696     -0.50635502      1.43538533
H       1.88631149     -1.71496114      0.16612428
H       3.34313013     -0.69951566      0.05939314
H      -1.93184131     -1.91480396     -0.20475632
