15
b3lypvtz=-219528.62732817
C      -2.60488361      0.13551095      0.27844723
C      -1.13762186      0.39461365      0.41008651
C      -0.18138460     -0.34032823     -0.16316040
C       1.25398812     -0.11453839     -0.03836079
C       2.09165415     -0.82822088     -0.80232141
F       3.43550003     -0.64848920     -0.70190553
N       1.70912803      0.88516058      0.82710974
H      -3.06639147     -0.03699758      1.25526151
H      -3.11907947      0.99611458     -0.15916094
H      -2.80575374     -0.73404917     -0.34814159
H      -0.85667546      1.26006496      1.00174462
H      -0.46473877     -1.18724629     -0.77949748
H       1.80798208     -1.54839435     -1.55187571
H       2.70981737      0.86983625      0.95755080
H       1.22845920      0.89696309      1.71494252
