13
b3lypvtz=-192832.69723963
C      -2.05237225      1.70404498     -0.88705775
C      -1.35562372      0.91750194     -0.05896754
C      -0.14187055      0.23069669     -0.42856634
C       0.56895714     -0.56357654      0.39774362
C       1.76198126     -1.22594579      0.00171653
C       2.77630254     -1.81187789     -0.27420106
O       0.15643902     -0.76977584      1.69213843
H      -1.73640580      1.87401736     -1.90936393
H      -2.95768309      2.19954898     -0.56541461
H      -1.70528795      0.77281571      0.95639876
H       0.23511782      0.35276930     -1.43487624
H       3.67028220     -2.32187041     -0.53445514
H       0.78016342     -1.35834850      2.12863578
