15
b3lypvtz=-212139.32258195
C      -2.49852520     -0.43315206     -0.11307631
N      -1.08035158     -0.73174066     -0.14815034
C      -0.25009362      0.22114734      0.02607354
N      -0.55349164      1.55193880      0.20495030
C       1.22916334     -0.09904034     -0.02628197
N       2.15785025      0.73748412     -0.30228769
N       1.50053843     -1.39960584      0.27941129
H      -3.06595961     -1.35581874     -0.21778030
H      -2.79791277      0.23614106     -0.92934373
H      -2.80384186      0.03816600      0.83227393
H      -1.51006706      1.79074095      0.40155578
H       0.12939455      2.11911513      0.67902876
H       1.77756265      1.64933144     -0.53310755
H       2.41150429     -1.73502660      0.01547431
H       0.71872884     -2.03073960      0.19791300
