11
b3lypvtz=-267218.43315035
N       2.75101316      0.15044515      0.06196839
C       1.62093354     -0.62866474     -0.00882283
C       0.36395758     -0.15349030     -0.00524171
F       0.21004928      1.21050062      0.00114072
N      -0.72840071     -0.95400312     -0.00105572
C      -1.94023785     -0.63786415      0.00132894
F      -2.42713540      0.62466149      0.00414419
H       2.62752775      1.13162736     -0.13103228
H       3.59420345     -0.24064420     -0.32140064
H       1.75606496     -1.69898989     -0.01453245
H      -2.74017776     -1.36562622      0.00085837
