13
b3lypvtz=-247072.77725871
C       2.47956585     -1.18864459      0.00000219
C       1.88700347      0.18382144     -0.00000085
C       0.59047780      0.49081200     -0.00000076
F       0.25273636      1.81284233     -0.00000681
C      -0.55743546     -0.38846445     -0.00000050
C      -1.81066419      0.05286056     -0.00000375
F      -2.84586328     -0.80381424      0.00000519
H       3.11568028     -1.33563915      0.87693838
H       1.72852058     -1.97638435      0.00000579
H       3.11567708     -1.33564400     -0.87693553
H       2.57417858      1.02174022     -0.00000404
H      -0.38233340     -1.45469532      0.00000355
H      -2.12170867      1.08658456      0.00000513
