16
b3lypvtz=-204455.47746397
C      -2.95711799     -0.32257801      0.52487104
C      -1.91099842      0.22527270     -0.45664662
C      -0.59431347     -0.48172284     -0.35705953
C       0.60519105      0.06018792     -0.10552611
O       0.85548659      1.38822613      0.09723492
C       1.81850096     -0.76790231     -0.02042473
N       3.00023483     -0.36730971      0.20899544
H      -3.91290013      0.18879624      0.40223444
H      -3.12352296     -1.38819286      0.35896125
H      -2.63037369     -0.19451364      1.55742695
H      -1.80170726      1.30237874     -0.29300179
H      -2.29674953      0.12364824     -1.47682768
H      -0.61117187     -1.55652686     -0.49444296
H       0.03940237      1.89161377      0.01585990
H       1.64941385     -1.83404994     -0.17486032
H       3.00919266      0.64727443      0.33242278
