14
b3lypvtz=-227001.63656086
C       0.01150182      1.40031415     -0.61117887
C       0.10225721      0.03049003     -0.01584272
C       1.27415251     -0.61005391      0.23198881
O       2.47959091     -0.08447971     -0.02998764
O       1.32902251     -1.83846866      0.76632986
N      -1.00149795     -0.72957972      0.34482452
C      -2.20282709     -0.32411162      0.19938617
H      -0.50212896      2.09556830      0.06052805
H      -0.54744063      1.39113809     -1.55241682
H       1.00242852      1.80028035     -0.81373765
H       3.14991378     -0.72461182      0.23864797
H       0.38702492     -2.07757015      0.89665381
H      -2.46784697      0.64715541     -0.21931801
H      -3.01415057     -0.97607076      0.50412252
