13
b3lypvtz=-242069.4948573
N      -3.17810375     -0.20525208     -0.06641609
C      -1.87183285      0.23641077      0.00241300
C      -0.77568085     -0.53947039      0.00934139
C       0.56845866     -0.00842042      0.00292898
O       0.66975843      1.35634452      0.00536752
C       1.66230031     -0.78055049     -0.00117892
F       2.89422516     -0.18242734     -0.00196010
H      -3.34504639     -1.17262407      0.16124517
H      -3.87825663      0.41343496      0.30603182
H      -1.76165011      1.31269118     -0.00328459
H      -0.86650881     -1.61944049      0.01270107
H       1.60668170      1.58635767     -0.00275394
H       1.69517311     -1.85602682     -0.00534433
