15
b3lypvtz=-214525.72011468
C      -3.16064174     -0.28969982      0.08524654
C      -1.95416504      0.17831145     -0.23954891
N      -0.78409045     -0.56027769     -0.10234775
C       0.34322530      0.03002839      0.05156429
N       0.57668017      1.37054917      0.16717296
C       1.58728894     -0.83784784      0.14845941
O       2.79919623     -0.13386912     -0.10808546
H      -4.04659958      0.30907839     -0.06892943
H      -3.27674667     -1.27683978      0.51191745
H      -1.88099717      1.17232500     -0.68743734
H       1.51572615      1.65622283      0.38803205
H      -0.17312731      1.99345727      0.40656254
H       1.66734740     -1.20817872      1.17229883
H       1.45837876     -1.70034006     -0.50622868
H       2.88350900     -0.00498746     -1.05800551
