14
b3lypvtz=-231966.63173527
C      -0.41173034     -1.09376294     -0.46135553
C       0.42019568      0.23837631     -0.41123844
C      -0.86444349      0.96108334      0.03092749
C      -1.63912060     -0.28584040     -0.03610688
O      -1.33390343      0.32288708      1.22612652
C       1.59893591      0.32571871      0.52495170
F       2.61274496     -0.53324299      0.08626034
H      -0.48174198     -1.49787961     -1.46960168
H      -0.11554193     -1.88228145      0.22903468
H       0.71742596      0.54373098     -1.41531772
H      -1.15607486      1.99010765     -0.12630615
H      -2.68304812     -0.45028063     -0.26190853
H       2.01381383      1.33668235      0.54905171
H       1.32248842      0.02470161      1.53548249
