16
b3lypvtz=-202048.41684119
C      -3.32509672     -0.39741730      0.50904417
C      -2.35479271      0.47698800     -0.29761634
C      -1.00722898     -0.15154225     -0.44928852
N       0.04215003      0.41162638     -0.00136937
N       1.21296550     -0.32183410     -0.21930312
C       2.24176181      0.29367865      0.22864207
N       3.50123665     -0.19949607      0.07195224
H      -3.44065663     -1.38385727      0.05535036
H      -4.31246830      0.06365872      0.55909550
H      -2.96507734     -0.53965582      1.52886563
H      -2.77704415      0.64690984     -1.29438580
H      -2.23219315      1.45245919      0.17391338
H      -0.93758993     -1.12118885     -0.94972595
H       2.16272981      1.26065601      0.72423208
H       4.22700848      0.13722599      0.67836990
H       3.58336962     -1.15247611     -0.24339723
