18
b3lypvtz=-181859.56919635631
C       2.85480991     -0.25156092     -0.07289329
C       1.67466385     -0.89314624      0.08956586
C       0.36234237     -0.38140123     -0.10955948
N      -0.66577510     -0.95742997      0.81085904
H      -0.49855146     -0.76863524      1.82384264
H      -0.72417364     -1.96712176      0.71437215
C      -1.95345284     -0.28205507      0.42086591
C      -1.51936907      1.11438559     -0.07190505
C       0.02746208      1.07781364     -0.08160825
H       2.90476488      0.79382184     -0.34942312
H       3.79333930     -0.78148299      0.00539667
H       1.72975574     -1.95033783      0.35810142
H      -2.62189357     -0.26569890      1.28239827
H      -2.39547556     -0.87641521     -0.37283112
H      -1.91631122      1.28551065     -1.07063934
H      -1.90837177      1.89879207      0.57808736
H       0.41714073      1.59530026      0.82082452
H       0.43909536      1.60966132     -0.93894757
