13
b3lypvtz=-213769.80943889
C       0.30901516     -0.80620451     -0.39057910
C      -0.85520865      0.07820258     -0.04160087
C      -0.37422006      1.20153390      0.48855688
O       1.02875816      1.22408502      0.55441776
C       1.49499220      0.02472106      0.05885895
N       2.70637521     -0.30597856      0.00115585
N      -2.16318654     -0.26520918     -0.37982336
H       0.29792179     -1.76874226      0.12681444
H       0.36607304     -1.01607515     -1.46103917
H      -0.86002224      2.09224864      0.84761711
H       3.30620772      0.43001461      0.37083412
H      -2.39127957     -1.23149920     -0.19134791
H      -2.86542624      0.34290306      0.01613531
