15
b3lypvtz=-216901.88168151
C       1.96244103      0.00257575     -1.23174373
C       1.42621941      0.36467047     -0.07137265
C       0.14423827     -0.09921760      0.49747039
O       0.17152010     -0.11409459      1.90178579
C      -0.74544054     -1.10555375     -0.19758095
C      -1.17934321      0.32374845     -0.12937793
O      -2.23733095      0.60037249      0.75548511
H       1.50551416     -0.73580476     -1.87830496
H       2.89144915      0.43675141     -1.57462325
H       1.93513400      1.09113054      0.55435817
H      -0.72966097      0.06796177      2.20206257
H      -0.45862618     -1.51371235     -1.15660276
H      -1.26172698     -1.79360838      0.45833408
H      -1.15601551      0.92254947     -1.03302566
H      -2.26837178      1.55203107      0.90323577
