13
b3lypvtz=-218763.60559133
C      -3.23013244      0.22121099     -0.00000117
C      -2.10727048     -0.50125380     -0.00000125
C      -0.79030110      0.10162616      0.00000024
N       0.26572885     -0.62778683     -0.00000063
C       1.50977045     -0.05728775     -0.00000007
C       2.64991179     -0.74398937     -0.00000239
F       1.56617388      1.30631632      0.00000047
H      -3.20327165      1.30435919      0.00000089
H      -4.20589386     -0.24411130     -0.00000293
H      -2.13581017     -1.58446600     -0.00000254
H      -0.74027067      1.19205828      0.00000102
H       2.61079116     -1.82063894     -0.00000407
H       3.60182224     -0.23737695     -0.00000357
