13
b3lypvtz=-242082.38696414
C       2.14954685      0.64386220     -0.00001359
C       1.08111503     -0.14448516     -0.00000902
F       1.24094408     -1.48161056     -0.00001121
N      -0.25739432      0.22571001     -0.00000068
C      -0.57919738      1.64852925      0.00000611
C      -1.29257549     -0.69752263     -0.00000700
O      -2.46255310     -0.39043261      0.00000308
H       3.12940255      0.19533434     -0.00001793
H       2.06331491      1.71602887     -0.00001331
H      -0.17082264      2.13021551      0.88889062
H      -1.66056919      1.73477097      0.00001199
H      -0.17083193      2.13022393     -0.88887814
H      -0.94527138     -1.73407711      0.00000707
