11
b3lypvtz=-212993.72085084
C       2.77716667     -0.55539621     -0.19256789
C       1.70152044      0.01516252      0.31810748
O       0.43808132     -0.48396342      0.05189947
C      -0.59749491      0.39793535     -0.03881656
N      -0.59436375      1.65240594     -0.14991286
C      -1.85587647     -0.32195652     -0.00633735
N      -2.85474866     -0.89050298      0.01605350
H       2.70434136     -1.38676760     -0.87900756
H       3.75631266     -0.19972751      0.09014284
H       1.72499163      0.84378530      1.01554718
H       0.34120172      2.04911613     -0.20372625
