11
b3lypvtz=-192023.36314945
C       3.03446792      0.28766953      0.02285420
C       1.86951816      0.33145590      0.30468258
C       0.47361408      0.41734553      0.63849752
C      -0.49438003     -0.61304834      0.18281004
O      -0.05853479     -0.55494082      1.54658242
C      -1.86389109     -0.27860178     -0.09965530
C      -3.00569591     -0.01715888     -0.35721714
H       4.06625040      0.24510390     -0.22371661
H       0.08812055      1.42035071      0.79005390
H      -0.09217283     -1.45328196     -0.37367667
H      -4.01729646      0.21510623     -0.58050374
