12
b3lypvtz=-179588.47280832
C      -3.94603040     -0.25922984     -0.00269373
C      -2.75340797     -0.06726789     -0.00037875
C      -1.41215980      0.14934491      0.00237116
C      -0.21123172      0.33276013      0.00387531
C       1.16975566      0.58529307      0.01043584
C       2.09849818     -0.39655431      0.00691943
N       3.45318915     -0.21667292     -0.05302982
H      -4.99321163     -0.42799133     -0.00533084
H       1.48836641      1.62384296      0.01119715
H       1.78174130     -1.43186981      0.00704821
H       3.82333009      0.70313927      0.12029791
H       4.04454973     -0.97220822      0.24387513
