16
b3lypvtz=-227768.96551199
C       2.50484003     -0.44397338     -0.28846334
N       1.40873642     -0.44028090      0.66596068
C       0.20559881      0.26139717      0.36912713
C       0.32079540      1.57757504     -0.38880704
O      -0.62285145     -0.64382196     -0.46385528
C      -1.93996258     -0.62727446     -0.26432847
O      -2.54310871      0.06791769      0.51079612
H       2.15893596     -0.83929361     -1.24399835
H       2.95983865      0.53854746     -0.46975162
H       3.28298253     -1.11414192      0.07584239
H       1.70271544     -0.30683699      1.61911344
H      -0.33911934      0.41367664      1.29776587
H       0.74873495      1.42872524     -1.37952540
H      -0.66376978      2.02947832     -0.50047928
H       0.95629761      2.27066439      0.16499784
H      -2.41423395     -1.36339272     -0.92806168
