14
b3lypvtz=-224564.24560025
C      -0.30303896     -0.49005947     -1.35518666
C       0.03097517     -0.00807287      0.02358695
C      -0.82504294      0.05059075      1.06782002
N      -2.13287867     -0.36053550      1.09674104
N       1.32498103      0.42700250      0.32711940
N       2.14343362      0.38576413     -0.60001601
O       3.38571228      0.84343454     -0.19325393
H       0.29912695     -1.36186659     -1.62043983
H      -0.08244965      0.27737041     -2.09987726
H      -1.35274749     -0.76677894     -1.44998164
H      -0.43852904      0.41687964      2.00957212
H      -2.71551696      0.01696420      1.82302086
H      -2.60906191     -0.51105026      0.22354806
H       3.27483657      1.08055748      0.74724689
