17
b3lypvtz=-191991.2705391
N       2.84713486     -1.29186543      0.06134891
C       2.29073537     -0.28957828     -0.03621333
C       1.57816192      0.97917110     -0.16785847
C       0.06812758      0.81168555     -0.42044390
C      -0.67620873      0.13881261      0.73240464
C      -2.18853625      0.06267654      0.52143334
N      -2.53407210     -0.77081893     -0.63455667
H       2.03858464      1.53772598     -0.98580872
H       1.74618821      1.55768453      0.74429786
H      -0.34373122      1.80983138     -0.59614152
H      -0.07081082      0.23908076     -1.33938039
H      -0.48302912      0.69202687      1.65755747
H      -0.29189877     -0.87367007      0.87362804
H      -2.63481382     -0.39921761      1.40394645
H      -2.59683087      1.08335264      0.46251233
H      -2.39710014     -0.26807238     -1.50277030
H      -3.51191174     -1.03049927     -0.60612175
