13
b3lypvtz=-213788.25211803
N       2.24022764     -0.33512474      0.25676526
C       0.89858167     -0.30794734      0.06381087
N       0.14408863     -1.29613309     -0.24075217
C      -1.25606062     -0.84905987     -0.30047334
C      -1.29210269      0.65658173      0.01951437
C       0.16724357      0.99587273      0.23908257
O       0.68197885      2.06029069      0.48221846
H       2.75992397     -1.13781374     -0.05201580
H       2.71181792      0.55320172      0.28896893
H      -1.65440921     -1.06877921     -1.29314897
H      -1.84404365     -1.43703123      0.40743846
H      -1.69503236      1.26760753     -0.78919140
H      -1.86221373      0.89823483      0.91788276
