16
b3lypvtz=-202054.86754446
C      -2.73034119     -0.65395319      0.34402896
N      -1.72757279     -0.62928870     -0.42259628
C      -0.67473841      0.29311682     -0.14280378
N      -0.78921961      1.55757994      0.00691445
N       0.53271065     -0.34291661     -0.09362225
C       1.78209051      0.40141441     -0.05231883
C       2.95519300     -0.53322517      0.20354042
H      -2.82326806     -0.02138286      1.23221141
H      -3.55257300     -1.32907575      0.11906316
H      -1.76233304      1.84181797     -0.03602152
H       0.54950129     -1.25836432     -0.51180433
H       1.69949955      1.14626328      0.73830716
H       1.93003992      0.95856734     -0.98470635
H       3.88817858      0.02985143      0.23405652
H       2.83978747     -1.05652957      1.15377283
H       3.04884311     -1.28145901     -0.58759058
