11
b3lypvtz=-295542.41549086
N      -2.89943448     -0.12281835     -0.04995362
C      -1.58714773      0.26427615      0.00672763
C      -0.52145617     -0.54504780      0.01180357
C       0.86608335     -0.03472171      0.00011535
F       1.55904637     -0.44675542     -1.09295288
F       0.93561210      1.31633982      0.01664682
F       1.58162521     -0.47538978      1.06722090
H      -3.59486158      0.53541450      0.25295210
H      -3.12339083     -1.08590837      0.13736437
H      -1.43967539      1.33658294      0.00381385
H      -0.61118585     -1.62329898      0.01411490
