16
b3lypvtz=-204424.94865743
C      -2.11983449      1.20032418     -0.50030063
C      -1.53274822      0.13005009      0.02666944
C      -2.05228122     -1.26398451     -0.19524055
C      -0.30391508      0.26736693      0.90600158
C       0.94153084     -0.29552045      0.28524824
N       1.94070225      0.45896004      0.08846062
O       3.01094277     -0.24457437     -0.49574963
H      -1.73896478      2.19902351     -0.32918365
H      -3.00197935      1.11283069     -1.12215175
H      -1.30621201     -1.89953640     -0.67963927
H      -2.30055112     -1.74252880      0.75688733
H      -2.94490620     -1.26158552     -0.81924549
H      -0.48519843     -0.26259002      1.84959525
H      -0.12265278      1.31399794      1.14516109
H       0.98537368     -1.34814732      0.00736736
H       3.68381912      0.43709801     -0.58939695
