15
b3lypvtz=-214543.55964427
C      -1.73736381     -1.41075875     -0.00428086
C      -1.19297582      0.00771017     -0.00647505
O      -1.96381704      0.95986951      0.03738157
C       0.25110838      0.24493567     -0.02548197
N       0.68649377      1.59284564      0.05475437
C       1.16783585     -0.75023105     -0.03568135
N       2.52004505     -0.51027303     -0.01983539
H      -1.36737998     -1.98720146     -0.85342904
H      -1.45283102     -1.93880446      0.90735035
H      -2.82162820     -1.35714634     -0.05536913
H       1.19529441      1.87722949     -0.77502379
H      -0.13053299      2.18750693      0.14547015
H       0.86939898     -1.78446237     -0.11322818
H       2.78195707      0.38983150      0.35954916
H       3.11683933     -1.26919045      0.26249516
