15
b3lypvtz=-212102.09654877
C      -3.15307250      0.03783426     -0.13721541
N      -1.94878108     -0.20253498     -0.46857913
N      -0.95654400      0.08215240      0.43183181
C       0.25057509     -0.65954948      0.30706152
C       1.40910528     -0.03165988      0.02668509
N       2.59956126     -0.70386544     -0.25064173
N       1.54453376      1.35119529     -0.01200559
H      -3.43945159      0.42822654      0.84430363
H      -3.92955803     -0.14537569     -0.86755189
H      -1.29638094      0.19978180      1.38475213
H       0.22217813     -1.73755224      0.42303111
H       2.53284491     -1.70392636     -0.13732068
H       3.39487854     -0.32997189      0.24941243
H       0.64427282      1.81050078      0.00773683
H       2.11221136      1.66838989     -0.78589810
