15
b3lypvtz=-214494.37265301292
C      -1.44798072     -0.80871415      0.59533325
C      -1.09866295      0.30194949     -0.06979703
C       0.31899161      0.17500591      0.44680925
N      -0.17281509     -0.99343684      1.26629398
C       1.37598122     -0.17195405     -0.58388200
O       2.58861527     -0.64196410     -0.00017026
N      -1.67374885      1.24191955     -0.91842204
H      -2.34212361     -1.39596035      0.74223386
H       0.66217083      0.98955259      1.09530032
H       0.31846113     -1.84870164      1.01366322
H       1.01279121     -0.98529958     -1.21364950
H       1.55799035      0.69404571     -1.23225832
H       2.96284886      0.05848811      0.54344743
H      -1.38005325      2.19139135     -0.73309470
H      -2.68246602      1.19367800     -0.95180745
