14
b3lypvtz=-203703.61770069
C      -1.96662674     -1.32524441      0.09174758
C      -0.50345765     -1.11589040     -0.28875306
C       0.14232557      0.09323379      0.40913866
C      -0.46943466      1.36834114      0.03760818
N      -0.92852648      2.37542083     -0.27730937
C       1.66396722      0.17945753      0.19403960
O       2.31924363     -0.72374164     -0.24159882
H      -2.37026651     -2.19760254     -0.42243007
H      -2.07845833     -1.49274415      1.16514487
H      -2.58109264     -0.46586427     -0.17943147
H       0.09183478     -1.99030188     -0.02713157
H      -0.40401253     -0.98700353     -1.36770153
H       0.01906762     -0.00691007      1.49721759
H       2.12184874      1.13953259      0.49798842
