19
b3lypvtz=-171830.4759563
C      -2.81293192     -0.10232218     -0.49213858
C      -1.67840904      0.25784178      0.10215287
C      -0.45192956     -0.55631620      0.13192721
C       0.48952758     -0.51437710      1.32588479
C       0.94905096      0.03633075      0.00933064
C       1.12926396      1.53347390     -0.13587327
C       1.95182883     -0.77561261     -0.78524294
H      -2.90716123     -1.04900243     -1.01133288
H      -3.68630340      0.53546153     -0.47666978
H      -1.64300405      1.21441129      0.61405773
H      -0.56503978     -1.52941595     -0.33238045
H       0.24998397      0.18706316      2.11496905
H       0.90147745     -1.45215102      1.67515294
H       2.14262384      1.82063513      0.15623186
H       0.43742779      2.09929792      0.48647595
H       0.98095697      1.84874321     -1.17167089
H       1.79111693     -1.84707388     -0.65736111
H       1.88003678     -0.55122199     -1.85253730
H       2.97347090     -0.55143932     -0.46641681
