13
b3lypvtz=-237077.51265905
C      -3.18904371      0.21655535     -0.00020736
N      -1.97120707     -0.58350399     -0.00008576
C      -0.87317718      0.04332473     -0.00008185
N       0.33301820     -0.65178358     -0.00000971
C       1.43307662     -0.02471322     -0.00002054
O       1.60498476      1.30658925     -0.00006239
O       2.61197720     -0.67450054      0.00003728
H      -3.25748001      0.85726972      0.88510993
H      -4.05404229     -0.44462145     -0.00061879
H      -3.25702883      0.85782933     -0.88515746
H      -0.81755674      1.14065125     -0.00024110
H       2.55063745      1.50225805     -0.00005543
H       2.40473660     -1.61963589      0.00007218
