16
b3lypvtz=-181143.62499429
C      -1.84356930     -1.67253726      0.24770976
C      -1.36031269     -0.54952101     -0.28640318
C       0.00174263     -0.02308653     -0.13470147
C       0.20593625      1.41950256     -0.06278298
C      -0.72948203      2.34448675      0.17745441
C       1.05290613     -0.88221267     -0.11865327
N       2.38001773     -0.55722944      0.04762546
H      -1.25928988     -2.28444748      0.92397230
H      -2.84781624     -2.00972168      0.02796036
H      -2.02352742      0.05274175     -0.90172018
H       1.21664370      1.76880737     -0.25629708
H      -1.75701661      2.08178015      0.39222631
H      -0.48640225      3.39811158      0.16962640
H       0.87204608     -1.93327362     -0.30478636
H       3.01992008     -1.31704074      0.19420221
H       2.60703682      0.27192326      0.56958331
