20
b3lypvtz=-205978.25944195
C      -3.14783243      0.29034658     -0.20577540
C      -1.80885739     -0.38894242     -0.45498078
N      -0.87314404     -0.12477653      0.63789113
C       0.43394711     -0.77253152      0.51307751
C       1.38267630      0.08831847     -0.32899983
C       2.80596224     -0.43907865     -0.31590973
O       1.38671526      1.41596503      0.17776518
H      -3.83707214      0.10093773     -1.02948646
H      -3.61492110     -0.08451624      0.70845010
H      -3.02175939      1.36845918     -0.10135058
H      -1.96079785     -1.46947369     -0.60669519
H      -1.37222780     -0.00646987     -1.37990136
H      -1.30349409     -0.37465908      1.51846400
H       0.36499651     -1.78300936      0.08315717
H       0.86103050     -0.86455864      1.51417173
H       1.02139840      0.09521833     -1.36830659
H       3.19343453     -0.46159361      0.70429632
H       2.85287403     -1.44713868     -0.73252017
H       3.45242127      0.20723248     -0.90931480
H       0.47543909      1.57555850      0.46767874
