13
b3lypvtz=-239635.83974924
C       3.39570709     -0.30948130      0.14793163
N       2.17491447      0.40538857     -0.15736950
N       1.03243900     -0.28026384     -0.11273588
N       0.01137229      0.44656867     -0.01377763
C      -1.17483205     -0.27945170     -0.03956145
C      -2.33363671      0.36626160      0.05727664
F      -3.50274720     -0.29652475      0.04331523
H       4.24158737      0.24075203     -0.26147816
H       3.55143478     -0.44910166      1.22307231
H       3.35258908     -1.28750470     -0.32640816
H       2.09726243      1.38801343      0.08882148
H      -1.13698789     -1.35991338     -0.13645188
H      -2.44273967      1.43681303      0.15225236
