16
b3lypvtz=-181115.26053695
C      -1.41507807      0.25204810      0.57163152
C      -0.99784137     -1.07727213     -0.03106251
C      -0.43616362     -0.31500801     -1.20344937
C       0.50267995     -1.05424709     -0.30132775
C       1.36237839     -0.05664597      0.46463968
C       0.72172119      1.29951369      0.04861852
N      -0.61890448      0.98366456     -0.48567564
H      -2.47764207      0.46074825      0.44881752
H      -1.12333652      0.47336257      1.60205196
H      -1.56269617     -1.99929893     -0.02953625
H      -0.55316435     -0.41752701     -2.27225575
H       0.92549916     -1.98925127     -0.64246548
H       2.40917369     -0.12459830      0.16468059
H       1.32419417     -0.21675807      1.54380299
H       0.63803701      2.01192264      0.86962257
H       1.30114309      1.76944698     -0.74809262
