20
b3lypvtz=-182679.16152904
C       3.19861908      0.51226424      0.08684375
C       2.18388294     -0.57812723     -0.27955513
C       0.83410330     -0.32718810      0.32393631
N      -0.21049560     -0.18208548     -0.36905743
C      -1.47905966      0.06554155      0.30932597
C      -2.02762581      1.41877145     -0.14630531
C      -2.44633175     -1.07240374     -0.02181752
H       2.88608727      1.48230420     -0.30251238
H       3.30907534      0.60599857      1.16925427
H       4.18070449      0.28287452     -0.32793495
H       2.06883145     -0.65549734     -1.36066024
H       2.55160919     -1.54421926      0.08367104
H       0.80399399     -0.26371276      1.42433608
H      -1.33145150      0.09543129      1.40029284
H      -2.99010481      1.62176553      0.32659289
H      -1.34105207      2.22525656      0.11431756
H      -2.16344977      1.42665768     -1.22889849
H      -2.05573908     -2.02943939      0.32649958
H      -2.59486454     -1.14014195     -1.10059831
H      -3.41469946     -0.90409833      0.45262446
