16
b3lypvtz=-204417.3098591
C       1.13582196     -0.80646195      0.82378697
C       2.12219710     -0.03454785     -0.08002188
N       0.95986316      0.53362802     -0.80615630
C       0.05538748      0.18253066      0.31602923
C      -1.27731753     -0.35799189     -0.11290853
C      -2.48687534      0.46890036     -0.11288022
O      -2.26690039     -0.50189190      0.91423890
H       0.95752278     -1.82401746      0.47921805
H       1.33242648     -0.81602718      1.89246235
H       2.70492102      0.70465605      0.48031884
H       2.80146496     -0.61768615     -0.70342687
H       1.01519020      1.51766139     -1.03728978
H      -0.10483968      0.99520668      1.03546247
H      -1.22810168     -1.18924325     -0.81209645
H      -2.42670115      1.50421831      0.20976978
H      -3.29405937      0.24106613     -0.80155047
