18
b3lypvtz=-181897.61730459
C      -1.99805013     -0.68572309      0.02492216
C      -0.72837993      0.14716930     -0.00282302
N      -1.08786489      1.56256529     -0.06042409
C       0.30462427     -0.09639267      1.14479423
C       1.39641567     -0.20783188      0.09684884
C       2.71592117     -0.12089764      0.13573346
C       0.38106188     -0.31153988     -1.02588821
H      -2.62547068     -0.39460273      0.86853492
H      -2.57767243     -0.54014708     -0.89139061
H      -1.77000274     -1.74920045      0.10748375
H      -0.25642195      2.14373836     -0.07656484
H      -1.60114930      1.76245857     -0.91269694
H       0.12619362     -1.03666377      1.67181857
H       0.39008119      0.70384825      1.88111724
H       3.24772252      0.00562320      1.07109674
H       3.31325703     -0.17353064     -0.76653397
H       0.24081895     -1.33984732     -1.37047041
H       0.52891575      0.33107418     -1.89555782
