17
b3lypvtz=-194379.36933787
C      -1.07544293     -0.64332911      1.15342911
C      -0.44335026      0.09087132     -0.01905075
C      -1.46112679      0.84912519     -0.82938793
O      -2.64451917      0.89561952     -0.60969458
C       0.81626101      0.94313321      0.36236073
C       1.73200375     -0.19609914     -0.14396497
C       0.51509446     -0.79593715     -0.88689440
H      -1.82282666     -1.35735076      0.80544660
H      -1.57702060      0.05521773      1.82402513
H      -0.32078238     -1.18605866      1.72475761
H      -1.03006920      1.39812131     -1.69672015
H       0.88816767      1.23067550      1.41048565
H       0.90325341      1.84183604     -0.25055023
H       2.58883251      0.09155012     -0.75116186
H       2.08420470     -0.83696303      0.66312835
H       0.35116062     -1.87049072     -0.81662766
H       0.49585985     -0.50992138     -1.93988066
