20
b3lypvtz=-182671.65231142
C      -3.07762331     -0.29888399     -0.44840862
C      -2.00587621      0.13649120      0.56237947
C      -0.67231389     -0.50770490      0.31969809
C       0.48960507      0.06937768     -0.02682779
C       0.70505688      1.55196779     -0.16064559
N       1.60665474     -0.71302739     -0.37554473
C       2.92876647     -0.36202076      0.12837667
H      -4.04776900      0.14342896     -0.21158843
H      -2.80383307      0.00140084     -1.46120145
H      -3.19783228     -1.38437593     -0.44832225
H      -1.92512111      1.22401974      0.55338926
H      -2.35421626     -0.12612495      1.56797483
H      -0.67572669     -1.59401618      0.39625212
H       1.15851756      1.78318477     -1.12720073
H      -0.22725361      2.10253587     -0.08027055
H       1.37832253      1.93082429      0.61234625
H       1.41367315     -1.69713695     -0.25607351
H       2.99303949     -0.33115947      1.22539751
H       3.24145047      0.60839981     -0.25534061
H       3.64540909     -1.09870343     -0.23360394
