20
b3lypvtz=-182659.49417103
C      -1.66951401      1.19221926     -0.16813825
N      -0.79408967      0.09186747     -0.49754217
C      -1.09643957     -1.25025360      0.01596089
C       0.41828547     -1.52230955      0.11845614
C       0.61573323      0.01703768      0.00120859
C       0.85501620      0.67418481      1.36403210
C       1.63212895      0.50269516     -1.02321351
H      -1.25126801      2.12965603     -0.53952057
H      -2.63183526      1.04643994     -0.66397521
H      -1.86405670      1.30544191      0.91102777
H      -1.68271731     -1.87712212     -0.65974200
H      -1.59004014     -1.24509889      0.99910680
H       0.77457361     -1.98735798      1.03558822
H       0.81255320     -2.06323770     -0.74001953
H       1.85578018      0.42965603      1.72558042
H       0.78345455      1.76187712      1.29928046
H       0.13840230      0.33243266      2.11269989
H       1.45025940      0.03331531     -1.98970536
H       1.56656167      1.58578181     -1.15514032
H       2.65104490      0.26864365     -0.70438737
