14
b3lypvtz=-226954.52666989
C       3.43030606     -0.22846462     -0.25422564
C       2.19349732     -0.56227424      0.08139172
O       1.13406843      0.26402605     -0.18957580
N      -0.07530919     -0.29069494      0.25643168
C      -1.05661199      0.46674350     -0.01044281
C      -2.43796133      0.04865246      0.39519405
O      -3.31302653     -0.06592274     -0.72333187
H       4.24130941     -0.90247758     -0.02707880
H       3.65536892      0.70336394     -0.75297598
H       1.91572657     -1.48091434      0.57953616
H      -0.91324861      1.41018529     -0.53685919
H      -2.83537751      0.75657948      1.13259441
H      -2.39042925     -0.93321721      0.86170059
H      -3.54841229      0.81451496     -1.03115854
