15
b3lypvtz=-214470.7934009477
C      -3.54136400     -0.09507612      0.51233932
C      -2.36079342     -0.22296066     -0.07758873
O      -1.18855243     -0.17387081      0.62747912
C      -0.06100515     -0.65733925     -0.02580417
N       1.01905058      0.11119738      0.11643278
C       2.33127307     -0.10201788     -0.00617161
N       3.14619137      1.05134813     -0.05776621
H      -4.44038705     -0.10665639     -0.08407368
H      -3.62852510      0.03338090      1.58190238
H      -2.23400922     -0.36233058     -1.14596288
H       0.04807236     -1.72716514     -0.13406868
H       0.80628542      1.07977386      0.34630166
H       2.66508872     -1.10629435     -0.23099361
H       3.92763904      1.01365130      0.58400888
H       3.51103581      1.26435959     -0.98142954
