15
b3lypvtz=-191172.63052735
N       1.37473286      0.33910237      0.00029040
C       0.25149287      1.25099903      0.01943028
C       0.01813266      2.12444384      1.26756851
C       1.26300072      3.00672349      1.43674579
C       0.80847375      3.63055968      0.13139546
C       0.20046007      2.57555261     -0.73174204
N      -0.62072012      3.22227803      0.34917927
H       1.30678948     -0.31941699     -0.76458480
H       2.25505517      0.82848513     -0.09505842
H      -0.65947356      0.68812308     -0.18710521
H      -0.53103629      1.74486901      2.12288684
H       2.24296539      2.53034137      1.51344328
H       1.13378270      3.70782912      2.26058898
H       1.05435192      4.60903549     -0.25814900
H      -0.01820761      2.74887473     -1.77758935
