15
b3lypvtz=-216912.44204472
C       3.50756749     -0.04047789      0.00002034
C       2.08006173     -0.49171727      0.00000447
C       1.04799796      0.34150995      0.00000197
O      -0.24613383     -0.10385585     -0.00001834
C      -1.26063371      0.82980075     -0.00000131
C      -2.52403866      0.41584654      0.00001022
O      -2.92091943     -0.88735128      0.00000958
H       4.04357590     -0.41236931      0.87756370
H       3.58409075      1.04780483      0.00003105
H       4.04359001     -0.41235293     -0.87752138
H       1.88207495     -1.55796706     -0.00000688
H       1.16297583      1.42076972      0.00001103
H      -0.98405458      1.87369698     -0.00000026
H      -3.34538934      1.11507279      0.00002015
H      -2.13187007     -1.44371598      0.00000065
