18
b3lypvtz=-181912.26183831
C       2.10842332      0.01552907     -0.63063318
C       1.05777918      0.14490063      0.48351440
C       0.15755840      1.33509784      0.26017223
C      -1.13118750      1.22491386     -0.04821646
C      -1.81031637     -0.10709694     -0.23308116
N      -0.89574714     -1.24598265     -0.30823170
C       0.20515421     -1.13006335      0.64709101
H       2.82258378     -0.77898642     -0.40354008
H       1.63854650     -0.21207224     -1.59011365
H       2.66827297      0.94401446     -0.75739892
H       1.60013967      0.30615468      1.42291948
H       0.60623885      2.31838519      0.35989311
H      -1.74233955      2.11388618     -0.16775352
H      -2.51594959     -0.27224014      0.59248784
H      -2.41990339     -0.09453053     -1.14031262
H      -0.52558785     -1.31768581     -1.24813540
H       0.83272777     -2.02014965      0.56504777
H      -0.23138823     -1.14078117      1.65004685
