13
b3lypvtz=-211341.64699656
C       2.93323378     -0.33830756      0.00007545
N       1.82786761      0.29254993      0.00003198
N       0.68349910     -0.40923927     -0.00007188
C      -0.54652711      0.23015894     -0.00013641
N      -0.77185149      1.47554621     -0.00010970
N      -1.55985524     -0.77909093     -0.00016615
C      -2.76398947     -0.38848524     -0.00012931
H       3.84474955      0.24258223      0.00015345
H       3.00276063     -1.42793591      0.00004459
H       0.67854657     -1.42324756     -0.00011775
H       0.09945981      2.00030119     -0.00004842
H      -3.55029372     -1.13831666      0.00012874
H      -3.03770600      0.66734665      0.00032542
