19
b3lypvtz=-218458.8650468
C      -1.08388324     -0.68086337      1.10983584
C      -0.28978008     -0.00070601     -0.01540125
C      -1.00504840      1.29238040     -0.43766733
C      -0.17298730     -0.94688707     -1.22065955
C       1.10989815      0.36314855      0.52709762
O       1.85097512     -0.74051627      1.00680373
O       1.82326661      1.03493656     -0.49227910
H      -0.59108277     -1.59059610      1.45114333
H      -2.08475052     -0.94124863      0.76102138
H      -1.19452116     -0.01805934      1.97113151
H      -0.48541101      1.78318603     -1.25883167
H      -1.06234900      1.99822204      0.39457105
H      -2.02609402      1.07303645     -0.75552550
H       0.42526807     -0.50344550     -2.01583052
H      -1.16405932     -1.16602540     -1.62136289
H       0.27365407     -1.90545536     -0.94361430
H       0.99592825      1.00788943      1.40508187
H       1.99952651     -1.34007855      0.26598359
H       2.68145005      1.28108216     -0.13149781
