16
b3lypvtz=-204415.27497138
C      -0.17010078      1.43454006     -0.59851564
C      -0.28670377      0.09553706      0.10999534
C       0.68421486     -0.11772094      1.22345486
N       1.94420707     -0.27654629      1.14632609
O       2.40604181     -0.26070571     -0.18313296
C      -0.68884097     -1.11508051     -0.69901306
C      -1.65651420     -0.50784196      0.28203570
H      -0.33944385      2.26088256      0.09544265
H       0.81807653      1.55488845     -1.04054803
H      -0.91416104      1.50829454     -1.39345242
H       0.31813377     -0.13420849      2.24645470
H       3.35207778     -0.39667468     -0.07145004
H      -0.23958939     -2.06566004     -0.44947603
H      -0.86398489     -0.96752790     -1.75616473
H      -2.50207439      0.04568056     -0.10357330
H      -1.86133856     -1.05785670      1.19181689
