14
b3lypvtz=-201262.39020362
C      -2.16892575     -1.17555640      0.51536218
C      -1.51627381     -0.23617794     -0.16847188
C      -0.06566808      0.00707192     -0.15220694
C       0.43575594      1.08088787     -1.06208010
N       1.14490206      2.08850644     -0.75015195
N       0.69261573     -0.72113339      0.59395502
N       2.03550893     -0.62533200      0.54795424
H      -1.64613302     -1.86860053      1.16034693
H      -3.24361665     -1.26729368      0.44336915
H      -2.08260798      0.43743542     -0.80389589
H       0.14758612      0.98608800     -2.11317056
H       1.31913465      2.11327863      0.25790246
H       2.47903538     -1.02975006      1.35379257
H       2.46868647      0.21047571      0.17749476
