14
b3lypvtz=-203678.20899495
C      -2.62075013     -0.21689635      0.29283735
N      -1.71489392      0.36470886     -0.37225112
C      -0.37432049      0.08131798     -0.13719505
C       0.26613210     -1.08841103     -0.15030487
C       1.73778561     -0.85471890     -0.00209693
O       1.87210060      0.55405177      0.22453127
C       0.62182328      1.20250445      0.01008947
H      -3.66231843     -0.01636806      0.05602728
H      -2.40748157     -0.91745390      1.10608903
H      -0.17765026     -2.05733294     -0.32377452
H       2.29848862     -1.14665076     -0.90111092
H       2.17681055     -1.39229618      0.84587333
H       0.64625886      1.82840866     -0.89171111
H       0.39958918      1.85299641      0.86249679
