17
b3lypvtz=-191977.65283678
C       2.20199622      1.26742338      0.18090031
N       1.04823195      0.90518694     -0.20988082
C       0.64063608     -0.43157095     -0.10853808
N       1.60544905     -1.38878914      0.27337894
C      -0.65330679     -0.74075189     -0.31537911
C      -1.76276071      0.22966202     -0.56997831
C      -2.76765726      0.31131877      0.59009941
H       2.48079480      2.31171579      0.06915768
H       2.92915605      0.60127349      0.64950289
H       2.44667911     -1.35222588     -0.28906402
H       1.23771939     -2.32907927      0.27216687
H      -0.93282715     -1.78862446     -0.24494093
H      -2.30049018     -0.07648490     -1.47427123
H      -1.34056534      1.21426922     -0.76294405
H      -3.20441875     -0.66569603      0.80891493
H      -2.28142298      0.66931308      1.49889791
H      -3.58428850      0.99490384      0.34964261
