18
b3lypvtz=-181885.56196908
C       3.06269106      0.45554177      0.23751814
C       1.86967761      0.34687777     -0.33340577
C       0.94710828     -0.82916761     -0.19840807
C      -0.38720359     -0.44795772      0.40957834
C      -1.65421713     -1.14669811      0.06467431
N      -1.36882017      0.18462631     -0.46180504
C      -2.14227331      1.28101687      0.10128906
H       3.47066004     -0.33558598      0.85659808
H       3.67860188      1.33531495      0.10399463
H       1.49681302      1.16091076     -0.94836705
H       1.41638747     -1.60633500      0.41125229
H       0.75589247     -1.25887824     -1.18620936
H      -0.32765296     -0.05749614      1.42351921
H      -2.40729724     -1.23374693      0.84208349
H      -1.65207715     -1.95247665     -0.65999199
H      -1.58752835      2.21291348     -0.01704680
H      -2.37042954      1.14802945      1.16932935
H      -3.08453538      1.37409003     -0.44085783
