16
b3lypvtz=-204443.54427318
C       1.75339173     -0.75015001     -0.45764768
C       0.79874968      0.31904280      0.07110701
C      -0.07756740     -0.10460451      1.29715916
C      -1.28061964     -0.35364486      0.33389884
C      -0.52127625      0.46749657     -0.68716427
N      -1.00816273      1.20642963     -1.58381408
O      -2.56398763      0.08809067      0.68838024
H       2.57271387     -0.90917443      0.24557862
H       1.24706647     -1.70596956     -0.60146318
H       2.18484461     -0.45343077     -1.41503641
H       1.33052829      1.26442381      0.19259638
H      -0.28665435      0.73152498      1.96177633
H       0.26895687     -0.96008252      1.87406604
H      -1.31996411     -1.41133994      0.05044819
H      -0.29760204      1.78327597     -2.03631308
H      -2.80041737      0.78811218      0.06642789
