15
b3lypvtz=-216907.31116958
O       1.89967809     -1.04667282     -0.29784822
C       0.99386704     -0.28163305      0.48427324
C       0.86781532      1.18578556      0.00326115
O      -0.45922487      1.62042755      0.29903148
C      -1.27947838      0.47723897      0.39489988
C      -1.27374766     -0.50009159     -0.74183923
C      -0.44460832     -0.75720079      0.51019533
H       1.49059084     -1.21579162     -1.15364010
H       1.40039703     -0.31952461      1.49548781
H       1.56393095      1.86272289      0.49612746
H       1.06195489      1.22435641     -1.07494597
H      -2.17554378      0.66231174      0.96884625
H      -0.78163033     -0.21804354     -1.66410449
H      -2.15237806     -1.11516645     -0.87862820
H      -0.71152279     -1.57881865      1.15898361
