17
b3lypvtz=-215267.96371571
N       2.03563046     -0.70166625     -0.73573482
C       0.81523421     -0.94204143     -0.01814209
C       0.57854615     -0.45583140      1.40263911
C      -0.12096209      0.21215876      0.24555944
N       0.36692938      1.51867395     -0.13268908
C      -1.60421390     -0.01862836      0.09402701
O      -1.95872558      0.25321409     -1.26277740
H       2.81810391     -1.16941360     -0.29446166
H       2.22315805      0.29545802     -0.73499150
H       0.33368130     -1.87702293     -0.28096268
H       1.38015587      0.10454413      1.86482885
H      -0.00716210     -1.06428802      2.08027130
H      -0.05017260      1.78857949     -1.01677540
H       0.10704209      2.21564384      0.55585072
H      -2.14869389      0.64998415      0.77476256
H      -1.85252146     -1.05178002      0.36372914
H      -2.91612979      0.24241556     -1.34323354
