19
b3lypvtz=-192751.90196866
C       2.41149984     -0.17528457     -0.64851924
C       1.39801413     -1.00369144      0.13960748
C       0.43482950     -0.15567340      0.99299664
C      -0.47343580      0.73883303      0.17281643
N      -0.33704340      2.00413078      0.03324012
N      -1.47705013      0.11442483     -0.54347997
C      -2.16395247     -1.09076213     -0.11495106
H       3.07170760     -0.81991610     -1.23056832
H       1.91710303      0.50895017     -1.33895373
H       3.03647306      0.42178180      0.01976629
H       0.82238659     -1.62453679     -0.55043050
H       1.92678524     -1.69039411      0.80546908
H      -0.16245885     -0.81610216      1.62595232
H       1.01098278      0.48165652      1.66557289
H       0.47788182      2.33487247      0.54048841
H      -2.05496543      0.79308171     -1.01735037
H      -2.87678965     -1.37427195     -0.88791073
H      -2.71479096     -0.97200961      0.82632857
H      -1.46826892     -1.92099906      0.00043369
