18
b3lypvtz=-205196.81790316
C      -0.67692650      1.76143518      0.07470059
C      -0.25433482      0.31032687     -0.17046984
C      -1.28113557     -0.69261603      0.37594950
N      -2.56531091     -0.56724697     -0.32364199
C       1.10479813      0.03944848      0.42978698
C       2.34675285      0.17162335     -0.33402248
O       1.80830993     -1.12110272     -0.03415519
H      -0.68495182      1.98880086      1.14416392
H       0.00518306      2.46161226     -0.41032964
H      -1.68179042      1.92865039     -0.30852649
H      -0.16988003      0.14153476     -1.25000506
H      -0.84923520     -1.69912312      0.31840067
H      -1.45682118     -0.47903757      1.43443038
H      -2.48799208     -0.94102827     -1.26305546
H      -3.27782858     -1.11393329      0.14420381
H       1.16801855      0.17866284      1.50853550
H       2.29836901      0.45938829     -1.37999252
H       3.27528959      0.41494369      0.17265833
