16
b3lypvtz=-204448.33809416
C       1.23383473      1.74971104      0.15619430
C       0.61411892      0.57153504      0.04781065
C       1.43100499     -0.63258042     -0.23711938
N       1.09022525     -1.85563986     -0.21573254
C      -0.89467542      0.47400584      0.19379100
C      -1.60138414      0.15885784     -1.12007749
O      -1.28469995     -0.54517188      1.12628813
H       2.30401132      1.83757052      0.01593040
H       0.69513680      2.66099292      0.38328059
H       2.47219780     -0.40859650     -0.48521900
H       0.11226394     -1.95313046      0.05977076
H      -1.25567827      1.44472564      0.55163112
H      -1.24921012     -0.77908220     -1.54709278
H      -2.67375173      0.07736902     -0.94344082
H      -1.42443299      0.95455904     -1.84323058
H      -0.87038913     -0.36004358      1.97548065
