16
b3lypvtz=-181155.4339382
C       2.21546260     -0.16627313      0.00000099
C       1.07665507     -0.84256783      0.00000119
C      -0.33053455     -0.27268114     -0.00000004
C      -1.08099193     -0.74991789      1.26689220
C      -1.08099054     -0.74992011     -1.26689225
C      -0.29799685      1.19649910     -0.00000122
N      -0.28528736      2.34703913     -0.00000170
H       2.24275775      0.91606284     -0.00000015
H       3.16564172     -0.68308958      0.00000182
H       1.09399464     -1.92849065      0.00000228
H      -1.11106481     -1.84006355      1.28146250
H      -2.10466332     -0.37592885      1.27203098
H      -0.57866973     -0.40526831      2.16928029
H      -2.10466193     -0.37593107     -1.27203285
H      -1.11106344     -1.84006580     -1.28146064
H      -0.57866734     -0.40527217     -2.16928042
