11
b3lypvtz=-192054.96765155
C       3.97746644     -0.38735046      0.20680615
C       2.78058281     -0.38165773      0.04989385
C       1.43285703     -0.37609370     -0.12741704
C       0.22932414     -0.36269646     -0.27957699
C      -1.16209194     -0.38567340     -0.48466402
C      -1.99134672      0.50973541      0.07061419
O      -3.32724402      0.46047161     -0.14743788
H       5.02948144     -0.39307740      0.34421262
H      -1.57778371     -1.16127381     -1.11908542
H      -1.62633234      1.30348241      0.71215051
H      -3.76501312      1.17413355      0.32440401
