14
b3lypvtz=-224580.21117946
C       3.10091246     -0.58412500     -0.15622458
N       1.73387511     -0.37672562      0.27613443
N       1.24172099      0.86047113      0.04358509
C      -0.02732324      1.01359017     -0.05271484
N      -0.92773123     -0.04802495     -0.00959349
C      -2.16441044      0.19679278     -0.01889606
O      -3.05813673     -0.81481365     -0.00627946
H       3.22064274     -0.57502032     -1.24696523
H       3.72768270      0.20213274      0.26215529
H       3.44653859     -1.54502534      0.22503094
H       1.08248611     -1.13101840      0.08219056
H      -0.39036118      2.03132038     -0.18021462
H      -2.59586549      1.20353054     -0.03784855
H      -3.95160239     -0.45643044     -0.00978349
