16
b3lypvtz=-225335.56164617
N      -2.55322789     -0.41964501      0.70934392
C      -1.15148228     -0.76069503      0.47451349
C      -0.47578218      0.34360664     -0.32710906
O      -1.15574486      0.38219122     -1.59603831
C       0.98796494      0.09532151     -0.53215290
N       1.84389203      0.97894554     -0.20880479
N       3.16258113      0.75806478     -0.50126260
H      -3.02241337     -1.16805707      1.20421723
H      -3.02098353     -0.31069399     -0.18292518
H      -1.00404623     -1.70999683     -0.06243696
H      -0.64291006     -0.84567456      1.43729949
H      -0.59996017      1.29314645      0.19969712
H      -0.83810947      1.15002616     -2.08116684
H       1.27798755     -0.84913981     -1.00759153
H       3.43720328     -0.21875064     -0.56501649
H       3.75513109      1.28135064      0.12393342
