15
b3lypvtz=-216942.24783484
O      -2.29697409     -1.24296700      0.89972889
C      -1.31211098     -0.66341828      0.52193720
C      -1.03007373      0.82937915      0.70930908
C       0.19785858      1.10718632     -0.16501070
C       0.96658955     -0.22957074     -0.17744369
O       1.83403046     -0.39549198     -1.29013100
C      -0.13327206     -1.28639183     -0.21797512
H      -0.81767023      0.98716472      1.77144695
H      -1.91107457      1.42402281      0.47167201
H      -0.10390559      1.32894634     -1.19126300
H       0.80713153      1.93898232      0.19010696
H       1.53386141     -0.32935089      0.75717005
H       2.56095771      0.23057873     -1.21493090
H       0.13692403     -2.25621172      0.19509065
H      -0.43247201     -1.44295794     -1.26000737
