16
b3lypvtz=-227759.01338744
C      -2.60504953      0.63853205      0.47053414
O      -2.04496856     -0.22710567     -0.50921599
C      -0.82015696     -0.76042274     -0.16918188
O       0.17088917      0.28872423     -0.23818509
C       1.44470987     -0.06263366      0.03430766
C       2.35697209      1.12733572     -0.08280432
N       1.73988928     -1.25931482      0.33513711
H      -2.67775282      0.13503802      1.44104587
H      -3.60384782      0.89706112      0.12616663
H      -2.01404537      1.54997144      0.58315564
H      -0.57323200     -1.53280444     -0.89455248
H      -0.80636234     -1.17755887      0.84299118
H       3.38708433      0.85029823      0.12984842
H       2.04410972      1.90820632      0.61189543
H       2.29745640      1.54546812     -1.08854363
H       2.73573555     -1.35396507      0.50568730
