16
b3lypvtz=-204453.21205437
C      -0.02171743      1.74824521      0.18389825
C      -0.42878860      0.31752004     -0.05317138
C       0.58110737     -0.63344105     -0.48414052
C       1.87667596     -0.35964020     -0.67031389
O       2.75524471     -1.33123433     -1.08116202
C      -1.71712245     -0.03882612      0.12967788
N      -2.29844080     -1.28519984     -0.09819226
H      -0.87334531      2.35139914      0.49783989
H       0.39424598      2.20561366     -0.71974945
H       0.74446610      1.82734972      0.96189695
H       0.28221660     -1.65549436     -0.69201380
H       2.30090861      0.62406067     -0.51151677
H       3.63004230     -0.94865867     -1.18004346
H      -2.43125043      0.71771433      0.43158632
H      -1.67125421     -2.07415511     -0.08202047
H      -3.12288841     -1.46545310      0.45182474
