17
b3lypvtz=-194383.14838818
C       2.38621291      0.01482848      0.24783617
C       0.99661054     -0.02863805     -0.39555090
C       0.23723338      1.25738129     -0.18906286
C      -1.05839786      1.27311957      0.10377246
C      -1.87067705      0.01481285      0.19327677
O      -1.18338862     -1.12754574     -0.28967020
C       0.16347543     -1.18658485      0.15770167
H       2.98751235      0.82009703     -0.17747673
H       2.92451416     -0.92163885      0.08780621
H       2.31560957      0.18447501      1.32447416
H       1.12606980     -0.18932592     -1.47261645
H       0.79055008      2.18733262     -0.27073666
H      -1.57978660      2.20592069      0.28818341
H      -2.77543305      0.10169221     -0.41286141
H      -2.19744565     -0.14840157      1.23328266
H       0.55230098     -2.14859550     -0.17696030
H       0.19792163     -1.16952728      1.25691001
