16
b3lypvtz=-204419.54130789
C       1.92684826     -0.07887675     -0.29634104
C       0.57973026     -0.05897639      0.40381552
C      -0.67442747      0.52943096     -0.34600462
C      -1.36161945     -0.83088644     -0.14811087
C      -0.18722599     -1.38246619      0.53089832
O      -0.54287648     -1.81054308     -0.79581320
N      -1.32278354      1.58992955      0.41399618
H       2.68023438     -0.57652367      0.31836257
H       2.28278481      0.93408853     -0.49777767
H       1.86028175     -0.60991378     -1.24605391
H       0.64047120      0.42589546      1.37999052
H      -0.49133372      0.76287778     -1.40147306
H      -2.41544516     -1.04387524     -0.03111091
H      -0.10343713     -2.15234335      1.28596516
H      -2.16008962      1.90751166     -0.06203435
H      -0.71111209      2.39467096      0.49169135
