17
b3lypvtz=-191956.45255471
C      -2.54869750     -0.73640900     -0.03399896
C      -1.40623012     -0.04424009      0.01490302
N      -1.32467175      1.34718692     -0.02772258
C      -0.07903720     -0.73195639      0.25173770
N       1.02023717     -0.08835912     -0.47247180
C       2.35471447     -0.57964014     -0.15302761
C       1.91897005      0.75774719      0.31568636
H      -3.50696895     -0.24719671     -0.15198645
H      -2.54971789     -1.81091727      0.07173949
H      -2.17194827      1.79893229     -0.33809685
H      -0.52160608      1.67731935     -0.54373605
H       0.12416288     -0.75602922      1.33440447
H      -0.15598587     -1.76345889     -0.09063046
H       3.03390743     -0.67517285     -0.99076270
H       2.43841411     -1.36316199      0.59377520
H       1.70059377      0.87321891      1.37207573
H       2.27880678      1.65264001     -0.17679651
