13
b3lypvtz=-237081.02761572
C      -0.62950802      1.69520758     -0.01764445
C      -0.22740088      0.25517457     -0.00007782
N      -1.03287749     -0.74440706      0.00497999
N      -2.36544181     -0.53506394     -0.05469901
C       1.23004881     -0.09754959      0.00255756
O       2.10315044      0.73199208      0.01860668
O       1.49663729     -1.41483557     -0.01197891
H      -1.24245629      1.91595952     -0.89607049
H      -1.21805897      1.95573084      0.86867624
H       0.25585020      2.32384514     -0.03541360
H      -2.88774572     -1.33758556      0.25622158
H      -2.71342342      0.34939291      0.29709712
H       0.63903485     -1.87537092     -0.02385089
