12
b3lypvtz=-249551.53656803
C       1.41314352      0.64547702      0.06651470
O       2.03128091      0.98664185     -0.91052453
C       0.42164798     -0.50614128     -0.01113826
C      -0.94853179     -0.02903398      0.48055876
N      -1.07451646      0.37119069      1.66921130
O      -1.91468481     -0.06657247     -0.45421849
O       0.34573648     -0.99556553     -1.32889244
H       1.51324694      1.13539539      1.04548133
H       0.76380090     -1.28640907      0.67770303
H      -2.02762595      0.66990671      1.86732550
H      -1.51437051     -0.44513619     -1.25824478
H       0.99087277     -0.47975312     -1.84377611
