13
b3lypvtz=-234611.70702152
C      -2.71643962      0.21346807     -0.20782410
N      -1.44141502     -0.07039555      0.42615400
N      -0.36775947      0.50755697     -0.12578126
N       0.69665721     -0.06153893      0.13608997
O       1.73376382      0.71487622     -0.44419751
C       2.97889939      0.17833058     -0.22157639
N       3.32642951     -0.85474114      0.39899562
H      -2.85922724     -0.33298731     -1.14526704
H      -2.77172234      1.28015848     -0.41224663
H      -3.51385098     -0.05288138      0.48371439
H      -1.29145152     -1.00603950      0.79095659
H       3.69923725      0.83354786     -0.70376524
H       2.52687900     -1.34935440      0.78831258
