13
b3lypvtz=-213746.81239639
C      -1.27575642     -0.83175826      0.51747166
C      -0.56623904      0.18485703     -0.27467058
O      -0.84309906     -1.10895379     -0.82136157
C       0.90259859      0.51741797     -0.04933087
N       1.60165445     -0.61756976      0.53356712
C      -1.33687973      1.26954720     -0.85870361
N      -1.91618849      2.15595285     -1.30889468
H      -0.71612307     -1.33958062      1.29207472
H      -2.34911896     -0.74875759      0.64297099
H       1.31210474      0.86186705     -1.00836207
H       0.95500465      1.36213894      0.64067224
H       2.52526726     -0.34712502      0.84332181
H       1.70677507     -1.35803600     -0.14875516
