16
b3lypvtz=-181118.34295762
C       2.44135958      0.04911742     -0.75798738
N       1.67716744     -0.52910397      0.07014854
C       0.35673776     -0.08667637      0.24002415
C      -0.47871897      0.85009030     -0.64523508
C      -1.72256572     -0.05998301     -0.38899426
C      -0.87417774     -0.98267135      0.48705966
C      -0.26811979     -0.21271608      1.60937748
H       3.45972961     -0.31148968     -0.87417843
H       2.14213236      0.90393566     -1.37169441
H      -0.54565270      1.89048623     -0.32164127
H      -0.17416387      0.82816175     -1.69093074
H      -2.57004631      0.41195522      0.11175794
H      -2.07661107     -0.53884049     -1.29997686
H      -0.90634309     -2.06251961      0.48875893
H      -0.78878181      0.63696821      2.03921555
H       0.32805431     -0.78671424      2.30429619
