13
b3lypvtz=-239420.85797788
C       1.58876426      0.10798348     -0.45826894
C       0.17056787      0.55259454     -0.18656333
C      -0.76118833     -0.62647842     -0.21784385
C       0.18616808     -0.45223308      0.95102068
O       1.48444181     -0.92307954      0.57519839
O      -2.08096219     -0.18949455     -0.01154018
O      -0.24365914      1.85509492     -0.33243582
H       1.81725200     -0.30806131     -1.44151613
H       2.32970747      0.85791270     -0.17631125
H      -0.63530077     -1.45633265     -0.91202560
H      -0.10153820     -0.44811470      1.99396185
H      -2.54423707     -0.82193134      0.54656307
H      -1.21001578      1.85213994     -0.33023886
