16
b3lypvtz=-227761.43414329
C      -1.95388334     -0.64988277      0.93434776
C      -1.28473124     -0.36612269     -0.41414224
O      -1.38499217      1.04412399     -0.73023440
C       0.15747495     -0.78279135     -0.46894137
C       1.19092701     -0.05972538     -0.00104257
N       1.11616131      1.17825487      0.60094241
O       2.48806877     -0.49054889     -0.03787723
H      -1.91961404     -1.71736188      1.15580131
H      -3.00559286     -0.34497862      0.92804389
H      -1.43814810     -0.11824531      1.73456117
H      -1.82174540     -0.92525657     -1.18934060
H      -2.29033823      1.32245153     -0.56083742
H       0.36577728     -1.75721015     -0.89049374
H       0.29939860      1.69924944      0.31371342
H       1.97774649      1.69997790      0.55542058
H       2.50735898     -1.37815913     -0.40864098
