16
b3lypvtz=-204450.83469707
C       3.54392715     -0.08332754     -0.00001418
C       2.10006712     -0.46211702     -0.00000438
C       1.08599525      0.40365460     -0.00005588
N      -0.24283708     -0.02307772     -0.00004244
C      -1.18382474      0.82915460     -0.00009746
C      -2.60877565      0.36758481     -0.00008466
O      -2.72899995     -1.03050014      0.00003156
H       3.67969861      0.99852160     -0.00008568
H       4.05657395     -0.49089031     -0.87595530
H       4.05655463     -0.49077170      0.87599363
H       1.85637405     -1.51926322      0.00005050
H       1.27245777      1.47953935     -0.00011294
H      -1.00590116      1.91111263     -0.00015451
H      -3.11317352      0.79670762      0.87818730
H      -3.11313738      0.79656656     -0.87844838
H      -1.82066605     -1.37133513      0.00002381
