14
b3lypvtz=-201320.12425042
C      -2.22520625      0.47149784     -0.45970910
C      -0.82679711      0.10759437     -0.09475126
N      -0.43620217     -1.14802108      0.23673729
C       0.92644573     -1.11466532      0.51348535
C       1.28452380      0.19538948      0.32417369
N       0.19547754      0.93985711     -0.05245287
N       2.51980934      0.81688584      0.52116320
H      -2.56782624     -0.06777575     -1.34638532
H      -2.26342591      1.53702033     -0.67158468
H      -2.92540808      0.25668492      0.35132952
H      -1.02313509     -1.96223912      0.27461568
H       1.47520059     -1.98612868      0.81962701
H       2.55493078      1.70782003      0.04725380
H       3.31161311      0.24608003      0.26680293
