15
b3lypvtz=-214532.07610794
C       3.13840853      0.25352753     -0.08972449
N       1.88231519     -0.22702114      0.45106659
C       0.90207326     -0.36322332     -0.33093660
C      -0.42692899     -0.87129520      0.14330322
C      -1.53676527      0.15033254      0.02793917
N      -1.45985953      1.41114037     -0.02129281
O      -2.74965115     -0.45234835      0.00323834
H       3.10420606      0.46513114     -1.16652823
H       3.43180292      1.16018591      0.44277169
H       3.91453631     -0.48990768      0.10189168
H       0.97518779     -0.11899585     -1.40103890
H      -0.34268208     -1.18097692      1.18648209
H      -0.71896133     -1.75146428     -0.43558590
H      -0.49863515      1.73426004      0.02675953
H      -3.40673856      0.25864622     -0.02530639
