17
b3lypvtz=-191975.75931439
N       1.93984094     -0.19908628      0.94931184
C       1.71702248      0.10696109     -0.46559353
C       0.22097666      0.13171413     -0.80133869
C      -0.57545444      1.22957632     -0.12628140
C      -1.67053852      0.73621655      0.43730660
C      -1.75282883     -0.75292309      0.20705673
N      -0.45192651     -1.11874659     -0.38978855
H       2.92262683     -0.34795150      1.13707727
H       1.63001778      0.56515709      1.53789937
H       2.18800579     -0.68396767     -1.05313925
H       2.15749908      1.05799992     -0.79440053
H       0.15023564      0.25920174     -1.89101929
H      -0.29839343      2.27520552     -0.16873970
H      -2.43967381      1.30631543      0.94092087
H      -2.57878620     -0.98617505     -0.47755341
H      -1.93793239     -1.32234835      1.12178784
H       0.12581593     -1.51521626      0.34319483
