11
b3lypvtz=-189667.19773049
C       1.96529707     -0.60330929      2.50311727
C       1.38234612     -0.39224515      1.47484152
C       0.75486719     -0.18551981      0.21170931
N      -0.34095714      0.44630484      0.09725227
C      -0.86098425      0.60787919     -1.25252779
C      -2.21834614      0.06553826     -1.36132436
N      -3.27799911     -0.36550401     -1.47238499
H       2.46086609     -0.78069162      3.42564440
H       1.28321564     -0.60683023     -0.65251568
H      -0.23611616      0.13656127     -2.02335493
H      -0.91218932      1.67781656     -1.47325873
