9
b3lypvtz=-261426.90841308
N       2.50835586     -0.43611984      0.16975747
N       1.51429621      0.28876958      0.31691559
C       0.28338765     -0.37119351      0.00701750
F       0.37491496     -1.64209847     -0.38905211
N      -0.79328636      0.24933358      0.10567865
C      -2.06239936     -0.28873929     -0.14649210
O      -2.70690630     -0.90157929      0.65673511
H       3.32349809      0.14091243      0.42114285
H      -2.44176076     -0.00028519     -1.14150298
