12
b3lypvtz=-249556.71168887
O       1.13725754      1.70157239     -0.33713939
C       1.48988551      0.56426767     -0.51043855
O       2.77963485      0.29102639     -0.87213158
N       0.68500942     -0.53563242     -0.37378472
C      -0.68302334     -0.52516653     -0.01132235
C      -1.43802552      0.53920183      0.26405414
O      -2.75868534      0.47558046      0.60788456
H       2.94214002     -0.65180052     -0.98189703
H       1.07430351     -1.44608304     -0.53993685
H      -1.10600316     -1.52132677      0.02940251
H      -1.06627712      1.54921442      0.23826218
H      -3.05641638     -0.44105388      0.62024708
