10
b3lypvtz=-277101.61628112
O       1.67752757      0.65542828      1.05065191
C       1.45654108      0.03642939      0.04651412
O       2.37695475     -0.47013107     -0.78497447
O       0.24691624     -0.27756187     -0.45316165
C      -0.85682260      0.15525242      0.26013013
C      -2.05691183     -0.13868982     -0.20760796
F      -3.15784766      0.26042323      0.45103514
H       3.23907793     -0.23793833     -0.41559578
H      -0.66571721      0.71206030      1.16397997
H      -2.25961827     -0.69517253     -1.11097140
