14
b3lypvtz=-203651.23907075
C       2.63627805      0.00642083      0.74154599
C       1.50171587     -0.02396053      0.34540564
C       0.14487511     -0.08633883     -0.12579511
C      -0.59555552      1.21513325     -0.42713089
C      -0.99245134      0.41102620      0.76903494
O      -2.17529079     -0.31399688      0.77749010
N      -0.24491476     -1.21745897     -0.94602257
H       3.63713729      0.03736546      1.09300215
H      -0.04891461      2.13634629     -0.28564993
H      -1.26295103      1.19107904     -1.27829004
H      -0.72984665      0.78000919      1.75043042
H      -2.11297493     -0.92800223      0.02745255
H       0.12110937     -1.12999838     -1.88678915
H       0.12178395     -2.07762445     -0.55468411
