20
b3lypvtz=-182676.96508273
C      -1.76698661      1.45834397     -0.03954829
C      -1.43328637     -0.00568689     -0.33820149
C      -2.67732959     -0.88564256     -0.18824909
C      -0.28758344     -0.53872375      0.55019623
C       1.03203664      0.15810918      0.39029952
C       2.12750026     -0.43040007     -0.09463269
N       3.40584268      0.12381454     -0.17711362
H      -2.08825386      1.57909753      0.99917713
H      -2.57792570      1.81331730     -0.67875002
H      -0.90915139      2.11166106     -0.20246460
H      -1.09279821     -0.06961986     -1.37748069
H      -3.04926063     -0.86243205      0.83990181
H      -3.48519482     -0.54501796     -0.83897010
H      -2.46243036     -1.92656143     -0.43893509
H      -0.15275852     -1.60360643      0.33828473
H      -0.61922996     -0.47844794      1.59548525
H       1.09535207      1.19540910      0.70810975
H       2.08795979     -1.46951999     -0.40678518
H       3.95807379     -0.20259245     -0.95462013
H       3.43597922      1.13007670     -0.10352443
