12
b3lypvtz=-200541.41351363
C       2.33102861     -0.00000009     -0.00000716
C       0.99274646      0.00000018      0.00001733
N       0.28290556      1.22741439      0.00000749
C      -0.98670549      1.18103417      0.00000167
N      -1.70865210      0.00000116     -0.00001437
C      -0.98670633     -1.18103212      0.00000164
N       0.28290477     -1.22741317      0.00000738
H       2.87191051      0.93308506     -0.00001788
H       2.87191019     -0.93308543     -0.00001794
H      -1.57502704      2.09359080      0.00000843
H      -2.71318985      0.00000155     -0.00000171
H      -1.57502828     -2.09358849      0.00000811
