13
b3lypvtz=-239448.62284364
C       1.93380689      0.08045238      0.06765643
C       0.65123902     -0.61839847      0.12308994
O       1.14751374      0.06922500      1.26800841
C      -0.59909271     -0.04388906     -0.53097762
C      -1.78372303     -0.21966431      0.40156442
O      -2.46645154      0.71192409      0.74268213
O      -0.45824507      1.29669324     -0.90277390
H       2.85388166     -0.49255645      0.11510278
H       1.97960564      1.03769727     -0.43563298
H       0.65009258     -1.70321842      0.21149741
H      -0.80358753     -0.66398977     -1.41927033
H      -1.98557276     -1.24753008      0.75451267
H      -1.11946689      1.79325457     -0.39545936
