15
b3lypvtz=-214524.60890208
C       2.82469684      0.11064086      0.04670413
N       1.39034510      0.22786304     -0.10434827
C       0.65902159     -0.72761961      0.27935137
C      -0.83363271     -0.67896294      0.15600785
O      -1.48408671     -1.63631131      0.52179860
C      -1.47462243      0.57677326     -0.38710906
N      -2.87297961      0.35314391     -0.70597213
H       3.14562990     -0.83520285      0.49926333
H       3.18302424      0.94300736      0.65590293
H       3.29025475      0.21819971     -0.93507185
H       1.04231036     -1.65455067      0.72374327
H      -0.90931430      0.89991250     -1.26469967
H      -1.29119709      1.35176027      0.37403179
H      -3.25597909     -0.34931160     -0.08422478
H      -3.41347085      1.20065805     -0.60681615
