17
b3lypvtz=-194378.02667468
C      -2.13508021     -0.28722038      0.42884825
C      -0.91411374     -0.24249642     -0.49488531
C      -0.29572095      1.17477676     -0.63423881
C       0.81219453      1.27008005      0.44234996
C       1.23958968     -0.16414901      0.64969475
O       1.48387911     -0.87157831     -0.57860128
C       0.22489139     -1.05847512      0.08636367
H      -2.49526943     -1.30944158      0.56334145
H      -2.95490533      0.30150431      0.01486959
H      -1.90342991      0.11427669      1.41809405
H      -1.19929606     -0.62996201     -1.47611487
H      -1.04583684      1.95853236     -0.52739817
H       0.15011694      1.28137060     -1.62095743
H       0.42866722      1.66543302      1.38698727
H       1.63748387      1.91295663      0.13215118
H       1.87912315     -0.44595459      1.47837373
H       0.04658357     -2.05966898      0.46452698
