15
b3lypvtz=-216934.85205838
C      -1.84194102     -0.15566047      0.37014273
C      -0.51747422     -0.14692056     -0.37990861
C       0.21581314      1.19076513     -0.49944259
O       1.59429582      0.85530441     -0.70863863
C       1.88290987     -0.28304097      0.08643898
C       0.56040515     -1.02181592      0.25972404
O       0.40103017     -2.07566060      0.81748909
H      -1.73707839      0.30408898      1.35474471
H      -2.18431320     -1.17985340      0.51600734
H      -2.61097352      0.39012451     -0.17781991
H      -0.65871127     -0.55136673     -1.38966770
H      -0.10254320      1.80238300     -1.34113562
H       0.10110292      1.77662572      0.42310130
H       2.26500668     -0.00486190      1.07894711
H       2.63237109     -0.89981120     -0.40988223
