20
b3lypvtz=-182676.45801115
C      -2.94159588      0.22208768     -0.00005502
C      -1.52279375     -0.25566008      0.00004239
N      -0.54774403      0.54447741     -0.00003023
C       0.84507994      0.02834465      0.00003006
C       1.75553414      1.26228691     -0.00004905
C       1.10890051     -0.80632627     -1.26299038
C       1.10887712     -0.80614651      1.26317378
H      -3.47310372     -0.15760324      0.87717887
H      -2.97559214      1.30959692     -0.00016515
H      -3.47302710     -0.15777547     -0.87726125
H      -1.39557451     -1.34784286      0.00013232
H       1.56173432      1.87525362     -0.88091535
H       2.80877785      0.97485935     -0.00001765
H       1.56171633      1.87537937      0.88072586
H       2.15663487     -1.10847398     -1.30915482
H       0.49915658     -1.71084864     -1.28080959
H       0.88205974     -0.22513055     -2.15799423
H       0.88201351     -0.22482648      2.15809100
H       0.49914122     -1.71067091      1.28110888
H       2.15661300     -1.10827891      1.30940257
