16
b3lypvtz=-202052.33005302
C      -2.44999158     -1.09647069     -0.13049192
C      -1.57167819      0.11612000      0.03637456
N      -1.89538720      1.33021582     -0.15966623
N      -0.29050605     -0.19941648      0.53464384
C       0.72513219      0.31362662     -0.02188186
C       2.11236543      0.10747007      0.50649527
N       3.01938667     -0.26148012     -0.58366152
H      -2.54790407     -1.61597676      0.82394293
H      -1.99389437     -1.80108040     -0.82925386
H      -3.43813833     -0.82320134     -0.49650530
H      -2.86467167      1.39740335     -0.46559744
H       0.63915996      0.93721892     -0.91699526
H       2.07075449     -0.59756764      1.34352215
H       2.44923550      1.07050708      0.90526306
H       3.98402804     -0.17407330     -0.29140096
H       2.87729318     -1.22788212     -0.85176545
