16
b3lypvtz=-181157.634319
C      -1.03975905      1.89936904     -0.21746465
C      -0.51536577      0.68993383     -0.04994977
C      -1.11947874     -0.55473281     -0.64871511
C      -1.62079643     -1.57195115      0.38681701
C       0.73831153      0.51856093      0.79455568
C       1.83311997     -0.13412068      0.07538283
N       2.68537904     -0.65328641     -0.49714589
H      -0.58949263      2.78506830      0.21242848
H      -1.94296094      2.04368245     -0.79605555
H      -1.94536912     -0.26028190     -1.29750950
H      -0.37575599     -1.03900310     -1.28910199
H      -2.36734623     -1.12611850      1.04603291
H      -2.07953275     -2.42543642     -0.11319725
H      -0.81014466     -1.95905167      1.00585000
H       1.08873636      1.48814492      1.14974402
H       0.52157641     -0.08527582      1.68069678
