19
b3lypvtz=-192742.0634798
C      -2.57923385     -0.01658997     -0.53988713
C      -1.61571691      0.17666947      0.63986130
C      -0.15480692      0.16510226      0.22845448
N       0.47722549      1.27068427      0.26047803
C       1.81179973      1.41880813     -0.29173059
N       0.30033601     -1.08140354     -0.20346050
C       1.63927727     -1.60065884      0.06965815
H      -3.61462683      0.03649360     -0.20055184
H      -2.42775758      0.76242989     -1.28791919
H      -2.44359981     -0.98124467     -1.03270974
H      -1.79893858      1.14097093      1.10784602
H      -1.79481722     -0.59939845      1.39155385
H       1.92825626      0.92131298     -1.26130434
H       2.59360924      1.04331678      0.37608055
H       2.00372580      2.48200922     -0.43854944
H      -0.40466018     -1.79416523     -0.11144026
H       1.63287021     -2.67108251     -0.13108243
H       2.39332482     -1.15102510     -0.57130666
H       1.94062608     -1.45170324      1.11129574
