13
b3lypvtz=-169515.87320692
C       3.98120152     -0.23737847     -0.00000497
C       2.78730920     -0.06221555      0.00000082
C       1.44222562      0.13642812      0.00000790
C       0.24150104      0.30395836      0.00001270
C      -1.15037401      0.54415938      0.00002677
C      -2.08506244     -0.41600162      0.00000157
C      -3.55559021     -0.16613572      0.00001758
H       5.03104320     -0.39160414     -0.00000998
H      -1.45758798      1.58670586      0.00006061
H      -1.76295180     -1.45199986     -0.00003253
H      -3.78610379      0.89917486      0.00004975
H      -4.02780533     -0.62069783      0.87571063
H      -4.02781602     -0.62064737     -0.87569585
