13
b3lypvtz=-213735.06855031
C      -0.64186024     -0.74607807     -0.53514855
C       0.12723995     -0.02350153      0.29593172
C       0.80649363      1.18779888     -0.09186955
N       1.51836602      1.81006346      0.76993565
O       2.09524874      2.95063866      0.22189569
C      -1.32083335     -1.96779501     -0.12445051
N      -2.06572758     -2.71422812     -0.83930870
H      -0.78006532     -0.42676203     -1.56456474
H       0.26591545     -0.34151067      1.32351176
H       0.71093124      1.56459830     -1.10927054
H       2.59428620      3.31940830      0.95863693
H      -1.16672164     -2.26741170      0.91470383
H      -2.14327312     -2.34522047     -1.79035865
