11
b3lypvtz=-264611.69583151
C      -1.53983720     -1.12302713      0.33324603
C      -0.58859643     -0.23111270      0.08062130
O      -0.74914335      1.10931227     -0.04027912
O       0.69901192     -0.65916334     -0.08182191
C       1.78897967      0.11165009     -0.34456216
N       1.98779931      1.32696035     -0.51133001
F       2.79921580     -0.74985872     -0.41385441
H      -1.29405149     -2.16860253      0.40787487
H      -2.56435386     -0.81166204      0.46587162
H      -1.67985537      1.32229831      0.08800709
H       1.14093099      1.87320545     -0.43377331
