19
b3lypvtz=-171828.78151757
C       3.48600726     -0.36966623      0.10463462
C       2.05911150     -0.12910165     -0.06647165
C       0.88264464      0.06989950     -0.21535933
C      -0.55357383      0.31213193     -0.37376305
C      -0.93572884      1.69400452      0.18663497
C      -1.37071656     -0.83878419      0.25796171
C      -2.86971782     -0.77826585     -0.03305929
H       3.98137466     -0.50681153     -0.85890738
H       3.97007483      0.46848938      0.61034709
H       3.66669587     -1.26629973      0.70122781
H      -0.77211757      0.31548091     -1.44851199
H      -0.33368867      2.47580109     -0.27559327
H      -1.98526095      1.91883877     -0.00315623
H      -0.76421598      1.73013116      1.26385878
H      -1.19722887     -0.83624443      1.33751319
H      -0.96842443     -1.78299870     -0.11433893
H      -3.06319635     -0.76172881     -1.10835248
H      -3.33958665      0.10403279      0.40290984
H      -3.37582823     -1.65281994      0.37853258
