11
b3lypvtz=-215420.55450422
C       0.99079953     -0.00821893     -0.01511111
C       0.47630008      0.72802197     -1.00283475
C       1.09163326      1.45819245     -2.09507339
C       0.09907108      2.02095479     -2.79164923
O      -1.15865651      1.75507738     -2.29097691
C      -0.99792867      0.94652285     -1.16464183
O      -1.92714986      0.55958435     -0.52532820
H       0.33654272     -0.47499468      0.70848617
H       2.05658764     -0.15763668      0.08987004
H       2.14358139      1.53633159     -2.30977705
H       0.11311933      2.64236492     -3.67126373
