13
b3lypvtz=-213789.57754982
C       1.98053886     -0.68400084      0.00001466
N       0.55645986     -0.41871730     -0.00000024
C      -0.48409007     -1.34357284      0.00001816
N      -1.66560814     -0.86855089      0.00003947
C      -1.50277714      0.58747837      0.00003599
C       0.00044327      0.85482927      0.00000339
O       0.61723535      1.89462537      0.00001730
H       2.45008446     -0.25073558      0.88327409
H       2.14387227     -1.75980970     -0.00005694
H       2.45011875     -0.25061242     -0.88316490
H      -0.25212796     -2.40239367      0.00003337
H      -1.97407656      1.03319949      0.87832982
H      -1.97413595      1.03320874     -0.87822016
