17
b3lypvtz=-191993.41950177
C       1.70761694      1.10843852     -0.70931665
C       1.22113442     -0.04449336     -0.23399118
C       2.04122449     -0.99595926      0.59511631
N      -0.06137455     -0.52634982     -0.53978879
C      -1.10978314     -0.02697631     -0.00740917
C      -2.46204185     -0.58298579     -0.36008475
N      -1.11568429      0.97458304      0.93882252
H       2.73119536      1.39993273     -0.52035056
H       1.11115236      1.75330602     -1.34107132
H       3.04914919     -0.61771216      0.75907107
H       2.10117514     -1.96538684      0.09634399
H       1.56691187     -1.16769901      1.56497761
H      -3.09078056      0.18729604     -0.81394154
H      -2.97487476     -0.94298984      0.53452887
H      -2.34314462     -1.40305644     -1.06125770
H      -1.97597256      1.46647149      1.10417664
H      -0.27470445      1.52401499      1.02094264
