16
b3lypvtz=-204442.78825604
C      -0.38290087     -0.29803987      1.42086338
C      -1.50720811     -0.67297291      0.47922836
C      -0.33881095      0.15412192     -0.00820872
C       0.66358022     -0.50408740     -0.94468163
C       2.07693398     -0.02002021     -0.71573822
O       3.03560702     -0.74923979     -0.65614926
N      -0.48093139      1.57182225     -0.27219036
H      -0.58575500      0.44414126      2.18198816
H       0.30191088     -1.07372880      1.73519416
H      -2.45340146     -0.16339015      0.60377339
H      -1.58841932     -1.70509878      0.16518270
H       0.39129358     -0.26067645     -1.97972568
H       0.65303346     -1.58962567     -0.84994683
H       2.18275528      1.07472257     -0.59862794
H      -1.07848055      1.73334505     -1.07579157
H      -0.88920677      2.05872695      0.51483006
