15
b3lypvtz=-214526.94014998
C       0.12472753      1.87626468     -0.30468285
C      -0.11283694      0.62112044      0.08094827
C      -1.48270207      0.22050206      0.57714854
O      -2.16603074     -0.66745701     -0.31283764
C       0.93723347     -0.44434961      0.01947823
N       0.71054011     -1.69477408     -0.10222500
N       2.24765283      0.01085925      0.04855104
H       1.08452450      2.18337836     -0.69675568
H      -0.65077271      2.63096779     -0.25494761
H      -1.40416349     -0.32771231      1.51648410
H      -2.07877997      1.12019674      0.75822930
H      -2.20825007     -0.24963945     -1.17962710
H      -0.28283772     -1.87395856     -0.21670359
H       2.43977333      0.79260623      0.65378076
H       2.91845195     -0.73953354      0.12120722
