18
b3lypvtz=-205209.45839125
C      -2.68103510     -0.35740206     -0.21486337
N      -1.57852987      0.07393100      0.21648633
C      -0.47127605     -0.85901958      0.38104656
C       0.81090916     -0.36953588     -0.31385094
C       1.92520912     -1.40236850     -0.12531346
C       1.25629110      1.00668402      0.19818780
O       0.38932116      2.06632579     -0.16203875
H      -3.51345960      0.32982798     -0.34459323
H      -2.85193331     -1.41013990     -0.46990958
H      -0.73707341     -1.86389481      0.02283792
H      -0.27130572     -0.93254075      1.45576502
H       0.59920091     -0.26546102     -1.38280909
H       2.18898414     -1.51044802      0.93005555
H       1.62619310     -2.38529478     -0.49363612
H       2.82628837     -1.10569699     -0.66352733
H       1.38789708      0.95445153      1.29048186
H       2.23147861      1.25008943     -0.22893492
H      -0.50818669      1.77899654      0.06608275
