20
b3lypvtz=-182658.32212139
C      -3.15639393     -0.27704796      0.18695147
C      -1.71486779     -0.53429300     -0.24947776
C      -0.81074838      0.67516509     -0.03382033
N       0.54554516      0.41903816     -0.50592075
C       1.59671348      1.26926032      0.04493772
C       1.48433341     -0.15721310      0.45051450
C       2.43128218     -1.22013392     -0.04108209
H      -3.21257263     -0.02245516      1.24782912
H      -3.59836269      0.54954669     -0.37395063
H      -3.78129560     -1.15636054      0.02532801
H      -1.68276980     -0.80702683     -1.30668395
H      -1.30806794     -1.38691492      0.30189963
H      -0.82226194      0.96069021      1.03182627
H      -1.20060087      1.53030010     -0.59401931
H       1.30982715      2.02372023      0.77159677
H       2.36711819      1.57845428     -0.65184161
H       1.09416305     -0.31753369      1.45417161
H       2.76736436     -0.99290156     -1.05273145
H       1.94674320     -2.19877258     -0.05910505
H       3.30781638     -1.28982184      0.60706284
