16
b3lypvtz=-204430.23260096
O       1.77801163      1.52704042     -0.62894758
C       2.14358061      0.70748651      0.38250433
C       1.52171428     -0.40968950      0.77044632
C       0.29797550     -0.98747792      0.11356872
N      -0.50672441      0.04889118     -0.55072570
C      -1.87862657     -0.30003603     -0.89290718
C      -1.59471572      0.63362731      0.22807706
H       0.91637134      1.19525110     -0.96306380
H       3.03745224      1.05590193      0.88547897
H       1.94764125     -0.95974348      1.59813969
H      -0.30440375     -1.53667343      0.85217122
H       0.57863475     -1.71324784     -0.65890900
H      -2.21535559     -1.29920939     -0.63722136
H      -2.24106727      0.07577737     -1.84090307
H      -1.74550447      1.69815326      0.10460460
H      -1.73488382      0.26394850      1.23768677
