14
b3lypvtz=-222190.18069318
C      -2.09641678     -0.03253320     -0.11228411
N      -3.25839959      0.44295357      0.07612750
N      -0.88780506      0.50077581      0.29429216
C       0.38070394      0.00680962      0.00981283
N       1.35551112      0.84252409      0.08666202
N       2.62978913      0.19186259     -0.13879774
N       0.47941014     -1.31551148     -0.35337494
H      -1.99754360     -0.96762159     -0.65775099
H      -3.23480837      1.32245570      0.59496426
H      -0.87476110      1.44969690      0.63972195
H       3.28362119      0.67180516      0.46989389
H       2.92071942      0.44098426     -1.08173085
H       1.45166018     -1.60356839     -0.32914051
H      -0.15168061     -1.95063304      0.10978749
