13
b3lypvtz=-239490.81063187
C       0.83102838      0.19817090      0.80970622
C      -0.56167889      0.52989198      0.29635194
C      -0.88866451     -0.71656831     -0.54179151
O       0.36948195     -1.24769880     -0.98429158
C       1.39568082     -0.76276599     -0.22509730
O       2.52931853     -1.09910254     -0.39041246
O      -0.44608181      1.70425253     -0.49891131
H       1.46158713      1.07725662      0.91157018
H       0.79850483     -0.31707914      1.77178304
H      -1.29275738      0.67349280      1.09658515
H      -1.48530021     -0.48258622     -1.42257654
H      -1.40507518     -1.47626108      0.05069985
H      -1.30604366      1.91899723     -0.87361569
