14
b3lypvtz=-201305.20280304
C      -1.95440567     -0.75591741      0.00003007
N      -0.54072481     -0.45247612      0.00002520
C       0.51864715     -1.34532191      0.00002148
N       1.69055655     -0.84359622      0.00001380
C       1.48930106      0.61163921     -0.00000729
C      -0.02107848      0.83641764     -0.00003140
N      -0.76002821      1.87048739     -0.00008086
H      -2.43698550     -0.33188290      0.88145540
H      -2.43679772     -0.33333323     -0.88220488
H      -2.08698417     -1.83618385      0.00089816
H       0.31303901     -2.40922704      0.00006834
H       1.95716000      1.05998051     -0.87943242
H       1.95712176      1.05998690      0.87943660
H      -0.20005797      2.71866303     -0.00008720
