17
b3lypvtz=-215292.42622501
C       2.06659311      1.45932400     -0.23082138
C       1.29311222      0.22369152     -0.66873554
N       0.10969618      0.04023482      0.14737544
C      -0.77640873     -0.98415155     -0.02468595
N      -0.68751540     -1.99046532     -0.80971930
C      -1.98168633     -0.91105673      0.90146658
O      -2.36579901      0.42247278      1.23965219
H       2.95763697      1.58834372     -0.84486949
H       1.45845823      2.36068881     -0.33263158
H       2.38042297      1.37483094      0.81064529
H       1.02108471      0.30763636     -1.72862831
H       1.93147623     -0.66100834     -0.57956682
H      -0.22661291      0.82104767      0.68885123
H       0.17663846     -1.98528642     -1.34760749
H      -1.72611699     -1.39380283      1.84613255
H      -2.79473781     -1.47339930      0.44264691
H      -2.83654189      0.80079985      0.49059566
