15
b3lypvtz=-191192.48901846
C       2.82200984      0.69325167     -0.65369521
C       2.02664919      0.11468289      0.03249393
C       1.04770187     -0.59739251      0.84717012
C      -0.36022742     -0.57821264      0.24544249
N      -0.96602013     -1.59947448     -0.19311862
C      -1.05130216      0.77472648      0.23366770
N      -2.34750080      0.84603214     -0.41483092
H       3.53042730      1.20440481     -1.25655010
H       1.01334474     -0.14209562      1.84304403
H       1.36610291     -1.63364313      0.98353186
H      -0.39579044     -2.44147857     -0.11412921
H      -1.15404404      1.09371685      1.27868624
H      -0.37804314      1.50488056     -0.22274658
H      -2.23327143      0.68824387     -1.40998406
H      -2.92003627      0.07235769     -0.09435693
