10
b3lypvtz=-225480.05802682
N      -1.53029199      2.21078161      0.86794454
C      -0.97075531      1.31066496      0.41204417
C      -0.31965303      0.17545524     -0.15249615
C      -1.15774650     -1.01191163     -0.45459874
O      -0.74917459     -2.04201424     -0.93015268
C       1.01610276      0.25975370     -0.37363131
O       1.73348436     -0.72942841     -0.89453246
H      -2.22569534     -0.87520998     -0.20101589
H       1.54535630      1.17247618     -0.11949373
H       2.65837332     -0.47046743     -0.97036774
