15
b3lypvtz=-191211.1105629
C      -2.91436406     -0.09222117      0.02337216
C      -1.61836802      0.20048390     -0.14831181
C      -0.52659771     -0.71477894      0.07258604
C       0.80057605     -0.45571815     -0.05526151
N       1.76955647     -1.44711596     -0.00506272
N       1.34766904      0.78870046     -0.40281190
C       1.08454714      1.81286874      0.29226789
H      -3.68662022      0.63496492     -0.18333704
H      -3.23724179     -1.06529829      0.37364385
H      -1.36525671      1.19582432     -0.49793899
H      -0.79786164     -1.74682643      0.27314804
H       2.69303579     -1.13560830      0.24885020
H       1.49365676     -2.30634637      0.44040965
H       0.46952583      1.78520555      1.19511156
H       1.49075807      2.77334673     -0.01582941
