10
b3lypvtz=-220651.60426409
C       2.46431758      0.29242692      0.14852149
N       1.58301096     -0.55155704     -0.19400367
C       0.24385275     -0.21223008     -0.07572267
N      -0.26501083      1.01779772     -0.13314070
N      -1.55506431      0.76193681     -0.00787466
H      -2.26219824      1.48021371     -0.03598628
N      -1.85591481     -0.52174065      0.11821213
N      -0.72240201     -1.15761942      0.06823889
H       2.23199070      1.27136542      0.57350374
H       3.50985620      0.03094661      0.01412673
