14
b3lypvtz=-226973.70775198
N       2.45878775      0.68532280      0.29182988
C       2.01306307     -0.36031836     -0.25158243
O       0.75250648     -0.86703236     -0.29008271
C      -0.26505028     -0.17595705      0.41920920
C      -0.90655020      1.04818700     -0.26123551
O      -2.21087236      0.42773663     -0.20196585
C      -1.64249896     -0.82249074      0.25559629
H       1.75025924      1.23410813      0.77397855
H       2.67452738     -1.02315989     -0.80194742
H       0.04379662     -0.01448368      1.45267652
H      -0.87903244      1.99350482      0.28399792
H      -0.56659699      1.20049087     -1.28908057
H      -1.66145342     -1.59401097     -0.51770675
H      -2.12828089     -1.18727620      1.16137087
