16
b3lypvtz=-204455.38804387
C       1.70089606      1.15714604     -0.54500020
C       1.32903299     -0.05161558     -0.11247907
O       2.28861016     -0.85896056      0.46834266
C       0.01076634     -0.67046945     -0.23539273
C      -1.19330222     -0.10421092     -0.00649728
C      -1.40857282      1.28466782      0.51920049
N      -2.37394660     -0.77487839     -0.29596011
H       1.02124886      1.77330170     -1.11052433
H       2.70284153      1.51949377     -0.36572921
H       1.84136599     -1.56011650      0.95245844
H       0.02461016     -1.71127312     -0.55419012
H      -1.78649052      1.94181449     -0.26746131
H      -2.15893972      1.27123776      1.31545810
H      -0.48749087      1.70849784      0.90692501
H      -3.16824482     -0.54557194      0.27990115
H      -2.29486952     -1.76154095     -0.48629248
