16
b3lypvtz=-181135.28620287
C       1.67601667      0.31253068     -0.38553584
C       0.80339826      1.26598010     -0.06668428
C      -0.40796695      0.72265055      0.64432150
N      -1.66519652      0.59168483     -0.14710725
C      -1.31333059     -0.80408019     -0.51849878
C      -0.19793897     -0.81956031      0.55753105
C       1.23814324     -1.06062537      0.06797239
H       2.61195935      0.48164820     -0.90330823
H       0.93269699      2.31982285     -0.28022290
H      -0.57229196      1.18870691      1.61918410
H      -1.74111761      1.23319381     -0.92824447
H      -2.13620967     -1.50790020     -0.38033320
H      -0.91748350     -0.92426206     -1.53215163
H      -0.46058710     -1.38405408      1.44847879
H       1.88882347     -1.43825950      0.86374208
H       1.28239387     -1.79816122     -0.73953433
