12
b3lypvtz=-200532.44582594
C      -2.50882744     -0.28830683      0.12560197
N      -1.62628971      0.57922167     -0.15102513
C      -0.27285218      0.23894084     -0.06648479
N       0.18752015     -1.01336904     -0.10203561
N       1.51874756     -0.88052259     -0.00973533
H       2.09452551     -1.70297575     -0.04984379
C       1.92377221      0.41053115      0.07817795
C       0.78265166      1.17402866      0.03710262
H      -3.55518167     -0.01262192      0.02515014
H      -2.27539610     -1.30140375      0.45894113
H       2.96422732      0.67541815      0.15371301
H       0.69723468      2.24466340      0.07907383
