13
b3lypvtz=-192833.25517713
C      -3.32072964     -0.50606190     -0.44561977
C      -2.30739858     -0.24460336      0.36625621
C      -1.29862069      0.85543766      0.13614825
C       0.08013780      0.38283547      0.12283349
C       1.22328052      0.00040105      0.11091469
C       2.57239418     -0.50220958      0.11346514
O       3.53063275      0.10770094     -0.30164090
H      -4.02622408     -1.29692286     -0.22930525
H      -3.48399893      0.05938299     -1.35552239
H      -2.16354874     -0.83315586      1.26595241
H      -1.51244344      1.37481521     -0.80164780
H      -1.38527848      1.60781025      0.92964516
H       2.67959633     -1.51870800      0.53438977
