10
b3lypvtz=-228075.5116209
C       1.94201181      1.11270953      0.00003865
C       0.78027650      0.44712331     -0.00001375
C       0.80317324     -0.99460146     -0.00000961
N       0.86893684     -2.14468750     -0.00001027
N      -0.41377645      1.18216762     -0.00008490
C      -1.57565134      0.72226977     -0.00006471
F      -1.91735965     -0.57625648      0.00003770
H       1.93707717      2.19276819      0.00002717
H       2.88572425      0.58896985      0.00009502
H      -2.45343637      1.35729017     -0.00012831
