19
b3lypvtz=-195136.27422712
C       2.44708599     -0.33756786     -0.30032562
C       1.27568913      0.05450211      0.58125812
C       0.31227271      1.17542159      0.10757732
C      -0.87315289      0.35726120      0.68292393
C      -2.16634909      0.31437628     -0.10440254
O      -3.14415772     -0.54904575      0.47268518
C       0.04977992     -0.89318315      0.67810130
H       3.17802512      0.47153983     -0.37154639
H       2.96413780     -1.21619964      0.09300671
H       2.11293017     -0.57402683     -1.31357006
H       1.63331997      0.28606477      1.58744738
H       0.47082829      2.18282473      0.49187662
H       0.26966826      1.22164041     -0.98399380
H      -1.09156240      0.66250007      1.70826797
H      -1.95921075      0.02590978     -1.14403345
H      -2.62829361      1.30357997     -0.12742837
H      -2.78137289     -1.43995551      0.49760337
H      -0.07022138     -1.47222479     -0.24269920
H       0.00068336     -1.57351721      1.52835155
