12
b3lypvtz=-179604.67094254
C      -0.44656285     -1.47038283     -0.91970147
C       0.02886865     -0.45673675     -0.19288888
C      -0.75800423      0.11176774      0.98107401
C      -1.17707948      1.49829533      0.77718185
N      -1.51854616      2.58491244      0.61943634
C       1.29819009      0.13777036     -0.44888623
C       2.36213188      0.66898814     -0.62112155
H      -1.41447273     -1.90473640     -0.70932192
H       0.12002125     -1.88359617     -1.74151531
H      -0.14876775      0.07313931      1.88763019
H      -1.64638793     -0.49579843      1.15681281
H       3.30060927      1.13637726     -0.78869984
