16
b3lypvtz=-204456.54559804
C      -1.67250253     -1.10437493     -0.69225860
C      -0.95709848      0.16565940     -0.24491018
C      -1.92069898      1.26489007      0.16719276
O      -0.12583325     -0.08175551      0.91040617
C       1.08190601     -0.75565272      0.66934044
C       2.04338433      0.03856499     -0.12116866
N       2.78440109      0.65970415     -0.74421953
H      -0.97381727     -1.89078670     -0.98097863
H      -2.30747385     -1.48427469      0.10964527
H      -2.30001820     -0.89543479     -1.55996586
H      -0.31870315      0.53359002     -1.05615266
H      -2.57792427      1.52579555     -0.66299871
H      -2.53684890      0.93416069      1.00488381
H      -1.37491034      2.15687323      0.47226201
H       0.93888618     -1.71602312      0.16119862
H       1.52662860     -0.96216962      1.64331875
