14
b3lypvtz=-180355.36062656
C       3.38437651     -0.74199991     -0.27539012
C       2.45493462     -0.00300576     -0.10801878
C       1.30722416      0.87371374      0.10556674
C       0.05302575      0.10924604      0.44571549
N      -1.04207069      0.34016502     -0.15072782
C      -2.17199425     -0.39182867      0.22846220
C      -3.35449101     -0.19160297     -0.34723024
H       4.21056687     -1.38955949     -0.43179567
H       1.11250249      1.48482456     -0.77675319
H       1.53416804      1.56062118      0.93018138
H       0.14411574     -0.64593167      1.23640913
H      -2.05255063     -1.13807612      1.01615897
H      -3.46725280      0.54858758     -1.12739717
H      -4.22275180     -0.76135853     -0.04919794
