13
b3lypvtz=-213780.28410941
N      -1.79365940      0.55053648      0.59368621
C      -0.66079059      0.35521616     -0.30397419
C      -0.13892550     -1.04754376     -0.53751774
C       1.16950829     -1.07188538     -0.28301645
N       1.63658004      0.19052431      0.11460971
C       0.60279974      1.10494764      0.20512316
O       0.69399217      2.24127906      0.59760395
H      -2.63740192      0.17038909      0.18265455
H      -1.64183348      0.06375669      1.46967367
H      -0.92110619      0.82506937     -1.25883324
H      -0.73397822     -1.87821886     -0.87953463
H       1.86305279     -1.89512078     -0.35393743
H       2.56186228      0.39094999      0.45336244
