17
b3lypvtz=-217674.13689576
C      -2.06360441      1.02254589      0.02981495
C      -1.03584660     -0.03999479     -0.31424012
O      -1.60338549     -1.31143036     -0.01836351
C       0.25843593      0.12280008      0.46621593
C       1.29231617      1.14818848     -0.03702736
C       2.19886329     -0.07200007     -0.26859747
O       1.16539075     -0.98239576      0.18418544
H      -2.97640750      0.85640394     -0.54144154
H      -2.31371193      0.97930846      1.09091572
H      -1.69008915      2.02113591     -0.20286292
H      -0.79399696      0.01590762     -1.38584233
H      -0.90085584     -1.96389272     -0.12918186
H       0.03833140      0.16770652      1.53723380
H       1.64472609      1.86220144      0.70298520
H       0.99726085      1.68171609     -0.93927571
H       2.48810939     -0.26968203     -1.30260608
H       3.08401801     -0.12787670      0.36865888
