18
b3lypvtz=-181914.38680502
C      -3.20656450      0.19137934     -0.42639649
C      -1.93234012      0.05123860      0.34747578
C      -0.83478852     -0.56042876     -0.08571855
C       0.44282317     -0.71687364      0.69480030
C       1.62355081     -0.05041366      0.00799264
C       1.66761644      1.45577605      0.06815803
N       2.47834841     -0.78917093     -0.57250488
H      -3.12727535     -0.26326016     -1.41425802
H      -4.04101404     -0.28154409      0.09904296
H      -3.47715532      1.24305088     -0.55634665
H      -1.92851519      0.48372351      1.34559656
H      -0.82906929     -0.99887631     -1.08048466
H       0.31331272     -0.29635009      1.69590748
H       0.69021560     -1.77486377      0.79595259
H       0.74098212      1.88373018     -0.31936492
H       1.75903650      1.79099067      1.10479218
H       2.50700629      1.85342722     -0.50139045
H       3.20970927     -0.22486403     -1.00862688
