18
b3lypvtz=-205191.1757333
C      -1.71861183     -1.39460896      0.03331804
N      -1.18906603     -0.12494784     -0.40857525
C      -1.32892795      1.06929404      0.44052800
C       0.03679540      1.56466255     -0.08614094
C       0.26312377      0.11688014     -0.58402463
C       1.21383150     -0.69731078      0.29160639
O       2.55898941     -0.24446984      0.16428285
H      -1.45879042     -2.17806413     -0.68115178
H      -2.80844859     -1.33427781      0.06852767
H      -1.37141051     -1.70955723      1.03103846
H      -1.31426893      0.84817247      1.51760068
H      -2.20875415      1.67998739      0.22628575
H       0.75265358      1.93013496      0.64582273
H      -0.05609922      2.28540341     -0.89526220
H       0.58535430      0.01619106     -1.62874711
H       1.13734128     -1.76401142      0.04943711
H       0.96518544     -0.58206081      1.34779104
H       2.83219995     -0.35719221     -0.75181581
