10
b3lypvtz=-220654.94349928
N       0.83559247     -0.06336430      0.05850044
C       0.35769028      0.71128732      0.93708481
N      -1.03938887      0.88609002      0.98853275
N      -1.70290571      1.65169930      1.83439527
N      -1.05020547      2.31336791      2.70562019
C       0.33554106      2.17053600      2.69186115
N       1.04581014      1.44731866      1.90214718
H       1.84849960     -0.09358486      0.13772670
H      -1.61226194      0.38710879      0.32200015
H       0.83822844      2.75564116      3.45413136
