11
b3lypvtz=-262030.58809547
C      -1.62006622     -0.61804677      0.27467727
C      -0.83475394      0.26755804     -0.31641405
O      -1.29074194      1.22607274     -1.15511894
O       0.54706242      0.41790629     -0.19582867
C       1.35175096     -0.43085620      0.51935461
O       2.61839547     -0.00248007      0.42306420
O       1.02386663     -1.39278713      1.13475765
H      -1.23345306     -1.35109788      0.95564909
H      -2.67405333     -0.57868106      0.04932882
H      -0.54233159      1.66448128     -1.57407795
H       2.65432461      0.79803076     -0.11549202
