15
b3lypvtz=-193568.18670518
C       1.25097196     -0.11349733     -0.42479046
C       0.44802143     -1.06248615     -1.25748835
C      -0.98599318     -0.90384968     -1.76526687
C      -0.68359698     -2.14123668     -2.63857129
C       0.84901981     -1.81265648     -2.52855092
C       0.66873098     -2.58447754     -1.26896065
O      -0.54784772     -3.22290738     -1.66454226
H       0.81475061     -0.00002364      0.57075162
H       1.30109450      0.87721453     -0.88297222
H       2.27590797     -0.46923422     -0.29747880
H      -1.81573780     -0.99827775     -1.06125895
H      -1.09050006     -0.00007397     -2.36686826
H      -1.25917917     -2.41507847     -3.51580757
H       1.66063556     -1.70281241     -3.23213791
H       1.36312210     -3.11080283     -0.63135712
