18
b3lypvtz=-205201.8643469
C      -3.35467422     -0.43003566      0.03890106
C      -1.84792437     -0.51649973     -0.08794815
O      -1.30772317      0.77443533      0.16121920
C       0.05007728      0.91101625      0.10475303
C       0.95783546     -0.01273626     -0.22827116
N       2.32930813      0.25109001     -0.40006705
C       3.24919986     -0.64416239      0.29337590
H      -3.76183069      0.27949242     -0.68171614
H      -3.63897065     -0.10436970      1.03968819
H      -3.80397372     -1.40683616     -0.14700488
H      -1.43421036     -1.23217719      0.63265497
H      -1.55651496     -0.84894723     -1.09161525
H       0.33741535      1.93000399      0.33495014
H       0.67681780     -1.03512448     -0.44523307
H       2.55107695      1.22215386     -0.22624990
H       3.07339658     -1.66883235     -0.03913145
H       3.14888486     -0.62484230      1.38748902
H       4.27452787     -0.38327042      0.03085954
