17
b3lypvtz=-171048.83109816
C      -2.65403569     -0.88693768     -0.22581722
C      -1.52440086     -0.69984707      0.13940784
C      -0.17925460     -0.48234740      0.58296486
C       0.95460768     -0.29267219     -0.41566737
C       2.28332633     -0.96905244     -0.18522224
C       0.50864730      0.87187337      0.41204658
C      -0.21227986      2.05024126     -0.19241389
H      -3.65007543     -1.05638642     -0.54958868
H       0.08344169     -1.02432647      1.48422889
H       0.62783830     -0.26864535     -1.44891178
H       3.08394105     -0.45243189     -0.71966344
H       2.54410752     -0.97453880      0.87492775
H       2.26672874     -2.00530796     -0.52910511
H       1.16378373      1.12337977      1.23916217
H       0.50044234      2.76266279     -0.61364786
H      -0.88831204      1.73725977     -0.98775421
H      -0.80727319      2.57506873      0.55757173
