13
b3lypvtz=-216115.68872883
O       2.90242728     -0.89272198     -0.83105007
C       2.17888400     -0.93365880      0.39497983
C       0.85968925     -0.30963673      0.32360975
C      -0.23561896      0.18095166      0.24189588
C      -1.53206393      0.79829119      0.17921590
C      -2.25656258      0.95557015     -1.09348079
O      -2.65799932     -0.03543056     -0.15410619
H       2.35268123     -1.28480346     -1.51711115
H       2.79719404     -0.40478689      1.12209821
H       2.06825010     -1.96364744      0.75550806
H      -1.74005013      1.51587454      0.96709052
H      -1.80206271      0.57937283     -2.00351482
H      -2.93476825      1.79482549     -1.21163514
