18
b3lypvtz=-181888.54087578
C       2.22811542     -0.10601551     -1.03330364
C       1.13351735      0.47311844     -0.17923872
C       1.28649679      1.57393686      0.55139633
C      -0.14563080     -0.29419601     -0.20125493
C      -0.58190228     -1.17986744      0.92657429
N      -1.23682130      0.09368923      0.67326168
C      -2.57669671      0.03937005      0.10967838
H       2.46139751     -1.13119515     -0.73100309
H       1.92460804     -0.15153611     -2.08356492
H       3.14002479      0.48576233     -0.96844651
H       2.22658355      2.11012723      0.56746846
H       0.47255678      1.95633517      1.15140882
H      -0.42977490     -0.66078771     -1.18757482
H       0.02017250     -1.22861120      1.82562178
H      -1.11798476     -2.09016930      0.67268938
H      -2.78348436      0.97112233     -0.41815345
H      -2.71809899     -0.79610253     -0.59245784
H      -3.30307864     -0.06498069      0.91689879
