10
b3lypvtz=-223047.66385512
N      -2.65057350      0.28731406      0.00001994
C      -1.65242934     -0.49487787      0.00001270
C      -0.23643602     -0.11559352      0.00004234
C       0.43260396      1.07191229      0.00002656
N       1.77027237      0.77705386      0.00016459
N       1.96069247     -0.45900948     -0.00005680
O       0.66951349     -1.09760581     -0.00009032
H      -2.36969504      1.26974244      0.00000726
H      -1.83431701     -1.56873606     -0.00001551
H       0.07479861      2.08483909     -0.00006275
