14
b3lypvtz=-247921.0477971851
C       1.93001127      0.53846993     -0.39069426
O       2.06896392      0.86616635      0.76407339
O       0.84429115      0.03157761     -0.95569802
C      -0.39485390     -0.16607832     -0.11905868
N      -0.90822891      1.06452526      0.39422404
N      -0.02579790     -1.12688460      0.89513086
N      -1.33299228     -0.67099668     -1.07311773
H       2.72271764      0.63451374     -1.14543738
H      -1.10514870      1.71478139     -0.35682866
H      -0.26032501      1.48353174      1.04756802
H      -0.85115282     -1.36591961      1.43152795
H       0.66248375     -0.73165768      1.52703990
H      -2.26322791     -0.65703344     -0.67742717
H      -1.08674030     -1.61499571     -1.34130226
