16
b3lypvtz=-204442.94572327
C       0.34600687     -1.51797932      0.84600344
C       0.37480566     -0.37425947      0.16712805
C       1.25989412      0.76852749      0.60123587
O       2.20275135      1.14189862     -0.40546434
C      -0.45789857     -0.15364339     -1.07822805
C      -1.67334930      0.71011202     -0.82595385
N      -2.88243792      0.43108441     -1.07224653
H       0.94743599     -1.66099215      1.73529157
H      -0.28297112     -2.34649616      0.54519501
H       1.76240908      0.51347072      1.53927929
H       0.66981305      1.66960731      0.78024408
H       2.78622507      0.39163942     -0.55952797
H       0.16639127      0.34930765     -1.82433972
H      -0.77805311     -1.10912612     -1.49709247
H      -1.47519327      1.68957280     -0.38444272
H      -2.96572914     -0.50252382     -1.48268164
