13
b3lypvtz=-237033.4460196
C       2.49733406     -0.16176456      0.70701568
N       1.10210429      0.02018103      0.35871190
C       0.52989923     -0.88201659     -0.29285409
O      -0.77599141     -0.84233277     -0.68630950
C      -1.52602230      0.25001147     -0.35594368
N      -2.73157121      0.24157874     -0.73490141
O      -3.37585859      1.42319090     -0.32682869
H       2.60726231     -0.11652468      1.79169669
H       3.08360394      0.65873185      0.29004112
H       2.92021812     -1.10986299      0.35169784
H       0.97369609     -1.81660972     -0.63856361
H      -1.03769144      1.03808548      0.20257446
H      -4.26698312      1.29733185     -0.66633670
