12
b3lypvtz=-228822.69176366
C      -1.28757025      0.54194840      0.00515695
C      -1.14846170     -0.78394874      0.01299536
N       0.14571863     -1.37572485      0.00812910
C       1.22712822     -0.50437080     -0.00497615
C       1.11672432      0.81817763     -0.01297880
N      -0.18490696      1.40037936     -0.00801302
F       2.41319200     -1.13341391     -0.00887489
H      -2.26393501      0.99981920      0.00874132
H      -1.99064651     -1.45420204      0.02314970
H       0.29326406     -2.36472800      0.01364041
H       1.97694678      1.46392374     -0.02309556
H      -0.29745357      2.39213999     -0.01387444
