18
b3lypvtz=-205205.42600282
C       0.47597581      1.47126725     -0.56424011
C       0.27828984      0.30243572      0.03322889
C       1.43262820     -0.56109686      0.49307011
O       2.71567497     -0.14763244      0.06246582
C      -1.09020019     -0.29557776      0.31961098
C      -2.21675730      0.72537079      0.44301374
N      -1.44161739     -1.24979195     -0.75519712
H       1.47610216      1.84758060     -0.73142462
H      -0.34351228      2.09377648     -0.89297803
H       1.47087352     -0.55236903      1.58635226
H       1.24546648     -1.60633439      0.20647751
H       2.71898232     -0.13114396     -0.90035453
H      -1.00482122     -0.80533286      1.29346540
H      -2.37692595      1.24325688     -0.50204170
H      -2.00038062      1.45896185      1.21982515
H      -3.14965414      0.22131080      0.70439635
H      -0.69698489     -1.92178647     -0.89933032
H      -2.25949132     -1.78443066     -0.48179479
