16
b3lypvtz=-202032.28910098
C      -3.34185947     -0.56530999      0.07505358
C      -1.91830336     -0.25351942     -0.24038687
N      -1.31299836      0.73610781      0.27999042
C       0.04606894      0.92131891      0.02706515
N       0.87279078     -0.04772206     -0.06378635
N       2.18328615      0.22923695     -0.33663505
C       3.11799803     -0.72969811      0.22933842
H      -3.94138641     -0.59462095     -0.83916240
H      -3.75595262      0.17232362      0.75924663
H      -3.41784092     -1.55849427      0.52780460
H      -1.40170024     -0.91873819     -0.94042806
H       0.36025970      1.96646358     -0.02575666
H       2.44634687      1.19610969     -0.16046128
H       2.84340179     -1.72721848     -0.10957037
H       3.13415346     -0.73032366      1.32626139
H       4.11785868     -0.49993044     -0.13886215
