12
b3lypvtz=-226237.42547213
O       1.90368227      0.93173977     -0.21183104
C       0.69018943      0.31496040     -0.56360318
C       0.64014855     -1.17075301     -0.31384115
N      -0.42206150     -1.61556223      0.22713405
C      -1.32577523     -0.49945544      0.53502776
C      -0.50743867      0.76066672      0.28354838
O      -0.66711740      1.87115386      0.71498146
H       1.69039971      1.82224595      0.09882719
H       0.43994961      0.50819069     -1.62150511
H       1.44893427     -1.83817061     -0.59554837
H      -1.68610106     -0.55834199      1.56284274
H      -2.20500997     -0.52667410     -0.11593273
