17
b3lypvtz=-217706.71798458
C      -3.02053414     -0.64876949     -0.08000833
C      -1.78806669      0.18771381     -0.42018677
C      -0.75691398      0.21107049      0.70953023
C       0.48260587      1.03746330      0.40700802
O       1.21515467      0.51556440     -0.73557318
C       2.14489656     -0.41575777     -0.48967007
O       2.43902627     -0.86848192      0.58219847
H      -3.74071148     -0.64554369     -0.89946116
H      -3.52740444     -0.26526099      0.80844051
H      -2.74925718     -1.68781760      0.11891674
H      -2.09350456      1.21373407     -0.64895130
H      -1.32042481     -0.20005786     -1.32803593
H      -0.45035854     -0.80624496      0.96502443
H      -1.21100108      0.63017423      1.61370873
H       1.15280676      1.06686743      1.26381380
H       0.21988491      2.05321710      0.11407533
H       2.61340986     -0.70765055     -1.43895452
