13
b3lypvtz=-216171.68659496
O       2.38424597     -0.93842214     -0.25631275
C       1.26114522     -0.57304387     -1.06014506
C       0.12157520     -0.02260565     -0.28095625
C      -0.40225729      1.21965188     -0.12134349
C      -1.49281224      1.09338438      0.79683870
C      -1.55121195     -0.21699870      1.13356206
O      -0.57948862     -0.91734436      0.48533393
H       2.09886903     -1.61709031      0.36370635
H       1.61807028      0.19309018     -1.74636672
H       0.92334114     -1.42820323     -1.65734650
H      -0.05070308      2.11962878     -0.59627483
H      -2.14107282      1.87458846      1.15478193
H      -2.18980086     -0.78663541      1.78442262
