14
b3lypvtz=-229603.57093474
C       3.16761107     -0.31924999     -0.00108314
C       1.79055018      0.25644667      0.00193385
N       0.75565952     -0.49324391     -0.00226965
C      -0.50484097      0.00578637     -0.00528911
F      -0.67842085      1.37633492     -0.00081612
C      -1.61488655     -0.74819525     -0.00651394
N      -2.90319577     -0.26047237      0.06995418
H       3.72930933      0.01356136      0.87713724
H       3.12759312     -1.40687495     -0.00665779
H       3.72955740      0.02250716     -0.87575048
H       1.70349368      1.34476342      0.00843394
H      -1.48947685     -1.81987361     -0.00997039
H      -3.00964741      0.72083981     -0.13438356
H      -3.61782389     -0.83445163     -0.34504004
