17
b3lypvtz=-191950.41579434
C       0.95742775      1.69271731     -0.05806460
C       0.30079322      0.52760459     -0.00063301
N       0.90582601     -0.72770594     -0.01399345
C       2.34985868     -0.83125769      0.06537514
N      -1.12919577      0.57204054     -0.00144956
C      -1.91712798     -0.40337926      0.75213851
C      -1.89289086     -0.44327621     -0.73076616
H       0.39094892      2.60629805     -0.13211119
H       2.03416353      1.75221073     -0.05071301
H       0.42823539     -1.42132841      0.53918259
H       2.80310131     -0.37599824     -0.81628744
H       2.77090437     -0.34053142      0.95228772
H       2.62878257     -1.88388305      0.08274790
H      -1.41500012     -1.20368084      1.28669798
H      -2.76477152      0.01309397      1.28176086
H      -2.72879935     -0.05887342     -1.30159409
H      -1.34342017     -1.25129170     -1.19808019
