18
b3lypvtz=-205205.42883289
C      -0.08794382      2.13760833      0.15500196
C      -0.02770919      0.67314981     -0.23685644
C       1.07192963     -0.25617348      0.34191446
N       2.24159419     -0.47992694     -0.49938330
C       0.02684148     -1.39597694      0.38347435
C      -1.07452493     -0.31006561      0.31413452
O      -2.18877022     -0.50363029     -0.53678302
H      -0.99884536      2.60482584     -0.22473792
H      -0.07824305      2.25748821      1.24127343
H       0.75993099      2.69613251     -0.24899146
H      -0.01479805      0.55900228     -1.32330520
H       1.32160269      0.06172601      1.36392057
H       2.83133169     -1.20096249     -0.09681629
H       2.81059287      0.35930093     -0.54215636
H       0.05404571     -1.96056712     -0.54862113
H       0.03464597     -2.07772301      1.23396968
H      -1.40328647     -0.01332321      1.31697076
H      -2.82759211     -1.07013284     -0.09358361
