15
b3lypvtz=-193628.74360335
C      -2.52107608     -0.57320613      0.00000151
C      -1.08932195     -0.15407551      0.00000125
C       0.00544539     -0.93299485     -0.00000085
C       1.20457000     -0.08807520      0.00000340
O       2.47785105     -0.57354490      0.00000009
C       0.85837489      1.21048510      0.00000868
C      -0.64188899      1.28856185      0.00000561
H      -3.04976536     -0.18847125     -0.87708036
H      -3.04975614     -0.18849981      0.87710163
H      -2.61830768     -1.65897425     -0.00001535
H       0.01819059     -2.01601732     -0.00000319
H       2.45275661     -1.53449586      0.00001772
H       1.52642189      2.05584538      0.00001033
H      -1.03608298      1.81866933      0.87546704
H      -1.03607722      1.81866942     -0.87545851
