9
b3lypvtz=-258858.24390125
C      -0.39281076     -0.10432134      0.02931522
N       0.21302782     -1.12860103      0.51798524
O       1.58080071     -0.91995048      0.11596023
C       1.67066942      0.20748384     -0.61048713
O       2.63030912      0.68033563     -1.11648935
O       0.38524826      0.75129516     -0.67047019
N      -1.69644074      0.22879017      0.19104145
H      -2.28468046     -0.49881958      0.56415421
H      -2.10612335      0.78378763     -0.54289076
