16
b3lypvtz=-181121.97764937
C       1.07709578     -0.97369689      0.39683742
C       1.46612180      0.12430900     -0.57244719
C       0.53232940      0.99808437     -0.93935134
C      -0.85182872      0.81856057     -0.35111271
C      -1.18924480     -0.69123658     -0.42359996
N      -0.34151072     -0.90716204      0.80771658
C      -0.67435216      0.52372096      1.15883908
H       1.69568230     -0.92788216      1.29860532
H       1.25808830     -1.95859489     -0.04498013
H       2.48463433      0.17142578     -0.94003752
H       0.73265304      1.80955592     -1.62756887
H      -1.57666464      1.56013646     -0.68444816
H      -0.87734633     -1.24147947     -1.31086636
H      -2.22895908     -0.91978999     -0.18694440
H       0.10109512      1.06810653      1.69710773
H      -1.60779361      0.54594243      1.72225046
