13
b3lypvtz=-213686.61651071
O       0.88800298     -0.07653271      0.10581463
C       2.06696616     -0.11817828     -0.02744789
N       3.04807420     -1.10459846      0.37495844
C       3.92932821     -0.62809322     -0.72965978
C       5.21377184      0.19231118     -1.11545351
N       4.20728623      1.19661508     -1.70041578
C       3.30708721      0.70846716     -0.59108381
H       2.76107519     -2.07152669      0.46089641
H       3.60923141     -1.08032799     -1.66950649
H       5.87769809     -0.24616374     -1.85748723
H       5.76917462      0.58888181     -0.26328670
H       4.48956443      2.16473128     -1.58168755
H       3.67243942      1.15011458      0.34565925
