11
b3lypvtz=-212994.90146599
C       1.80503446      0.85131347      0.31394545
N       0.70818369      0.66105434     -0.27775988
C       0.14353432     -0.66927596     -0.25930435
C      -1.32255956     -0.64789338      0.13746615
O      -1.85110367     -1.52143595      0.77389559
C      -2.11649444      0.50295363     -0.33622475
N      -2.78758809      1.36230244     -0.70493828
H       2.35513031      0.06325813      0.84142405
H       2.24174877      1.84661738      0.30794096
H       0.16876056     -1.06500023     -1.28298680
H       0.65535365     -1.38389387      0.39545297
