15
b3lypvtz=-193624.36297854
O       2.45144473      0.34139791     -0.11984424
C       1.20621733      0.19351282      0.59205791
C       0.60904093     -1.16341688      0.35021047
C      -0.62699111     -1.35646946     -0.09981094
C      -1.58118987     -0.23860975     -0.38964432
C      -0.97625206      1.11831831     -0.19757098
C       0.25997479      1.30965529      0.25266165
H       2.25121209      0.27699064     -1.06063427
H       1.51273446      0.27797485      1.63980350
H       1.26418515     -2.00538135      0.54178099
H      -0.98769428     -2.36542456     -0.26780783
H      -2.47445745     -0.33975646      0.24131854
H      -1.96339752     -0.33301381     -1.41430817
H      -1.59974402      1.97220471     -0.43943125
H       0.65491683      2.31201775      0.37131894
