13
b3lypvtz=-213771.06763931
C      -2.20206869     -0.64598400      0.35145556
C      -0.87878127     -0.77688532      0.36332375
C       0.06634035      0.35248623      0.28111222
N      -0.17230277      1.59524765      0.44422358
C       1.50589366      0.02881860     -0.02639233
N       1.88327961     -1.17101334     -0.17606463
O       2.29956150      1.10883544     -0.11432353
H      -2.84964910     -1.50966920      0.41109139
H      -2.69280418      0.31714237      0.26758830
H      -0.41750985     -1.75361458      0.40185149
H      -1.14448317      1.79132825      0.67310229
H       2.88234019     -1.21455158     -0.37363065
H       1.72018373      1.87785947      0.06288102
