17
b3lypvtz=-194360.64114192
C       3.53187135     -0.25530360     -0.24783503
C       2.42546968      0.09940063      0.05111398
C       1.07297402      0.51565780      0.40396443
C      -0.00381805     -0.44942823     -0.12064061
C      -1.42137994     -0.07677108      0.30505260
C      -1.93442841      1.21721650     -0.31854406
O      -2.23874009     -1.18628540     -0.08122387
H       4.51181395     -0.56659273     -0.51021469
H       0.99806536      0.59237445      1.49347197
H       0.90442042      1.52280522      0.01366546
H       0.04128570     -0.49841451     -1.21064315
H       0.20363213     -1.45404406      0.24944953
H      -1.43992928      0.02394962      1.39982676
H      -2.96276338      1.41331327     -0.00530176
H      -1.33627352      2.07814562     -0.01567100
H      -1.91737643      1.14523584     -1.40740786
H      -3.15332651     -0.98657935      0.14076729
