15
b3lypvtz=-216945.53012982
C       3.27062429     -0.25699329     -0.00000118
C       1.88147604      0.28393377     -0.00000152
C       0.76948506     -0.44873643     -0.00000847
C      -0.56488690      0.18523709     -0.00000709
O      -0.79279264      1.37238883     -0.00000024
O      -1.53763526     -0.75652175     -0.00001097
C      -2.88291278     -0.25831307     -0.00000648
H       3.82181619      0.09879794      0.87497326
H       3.28681098     -1.34649273     -0.00000709
H       3.82182032      0.09880747     -0.87496915
H       1.76825990      1.36377583      0.00000449
H       0.79693988     -1.53092599     -0.00001467
H      -3.06720034      0.34818639     -0.88572296
H      -3.52171814     -1.13677293     -0.00002058
H      -3.06720361      0.34815987      0.88572764
