15
b3lypvtz=-191209.78132214
C       1.87256108     -1.50898446     -0.02823385
N       1.91310873     -0.24575193     -0.15091937
C       0.75328474      0.52306608      0.06581497
C       0.87017392      1.85799959      0.07211166
N      -0.44824760     -0.15281424      0.35099912
C      -1.50590974      0.14360569     -0.27959276
C      -2.82389152     -0.48800642      0.02264149
H       2.78528106     -2.07061162     -0.20894638
H       0.97806144     -2.06308310      0.25813219
H       0.02868038      2.49877431      0.28902012
H       1.83847456      2.30456737     -0.09354761
H      -1.48905773      0.89177260     -1.08289252
H      -3.22964333     -0.97047799     -0.87066224
H      -3.54769142      0.27652881      0.31913470
H      -2.72761458     -1.22054869      0.82109149
