15
b3lypvtz=-191218.86876373
C       1.88702994      0.90889177     -0.43563550
C       1.14956750     -0.38766915     -0.21318478
C       0.61573157     -0.76312671      1.13317389
C      -0.35615955     -0.43752013      0.01225407
N      -1.06013053     -1.55338163     -0.57029615
C      -1.07438743      0.81605165      0.09446194
N      -1.68116731      1.79565445      0.13547625
H       1.47073503      1.71899355      0.16338494
H       1.84370977      1.21332930     -1.48271110
H       2.93781223      0.79629758     -0.16222796
H       1.48231219     -1.22106173     -0.81892320
H       0.70643717     -0.04338257      1.93489154
H       0.63992300     -1.80139129      1.43070847
H      -1.89590170     -1.77222959     -0.04010801
H      -1.34500289     -1.34788450     -1.52100041
