11
b3lypvtz=-233898.64285576
N       2.56445523      0.16898552     -0.00009524
N       1.67516782     -0.68952604      0.00003552
C       0.33138177     -0.11110702      0.00001230
N       0.23234291      1.21212366     -0.00004909
N      -0.61591855     -1.00248915      0.00006182
C      -1.92759575     -0.57324636      0.00002661
O      -2.33903417      0.57964824     -0.00004488
H       3.46566687     -0.32591927     -0.00006139
H      -0.70036341      1.60576732     -0.00010225
H       1.08074752      1.75736980     -0.00013507
H      -2.63679323     -1.41184471      0.00007067
