16
b3lypvtz=-204430.02290611557
C       1.92095126      0.84971339     -0.18613088
C       1.06190305     -0.35720478     -0.07070152
N       1.42959922     -1.56633864      0.16219247
C       0.00891809     -2.04492336      0.17866536
C      -0.43494307     -0.61548038     -0.20875883
O      -1.33744562     -0.01152269      0.68324462
C      -1.83151457      1.24205530      0.24782554
H       2.96795105      0.57523174     -0.06216585
H       1.78879104      1.33368359     -1.15691851
H       1.65539469      1.58336118      0.57909641
H      -0.31318547     -2.33971363      1.17612682
H      -0.19780358     -2.84634570     -0.53183825
H      -0.79574511     -0.52710872     -1.24246122
H      -2.55090496      1.57815465      0.99193844
H      -1.03719867      1.99170960      0.16258277
H      -2.33476734      1.15472842     -0.72269738
