16
b3lypvtz=-181140.19652098
C       1.20124324      0.78157566     -0.48291313
C       1.32716224     -0.54944666     -0.47696124
C       0.15388038     -1.09860847      0.32294018
C      -0.00762499      0.00019775      1.38218946
C      -0.04171149      1.12076445      0.31331038
C      -1.24729303      0.60308920     -0.53742419
N      -1.10146328     -0.87371227     -0.47415209
H       1.78275574      1.49366480     -1.05155212
H       2.03487389     -1.14499756     -1.03716979
H       0.22093295     -2.12720897      0.66656049
H      -0.93081891     -0.09627785      1.95366916
H       0.84865047      0.07992833      2.04816383
H      -0.14259893      2.14674226      0.65750726
H      -1.22140773      0.98293656     -1.56031010
H      -2.19258886      0.90861184     -0.08326650
H      -0.99111969     -1.25974706     -1.40304960
