17
b3lypvtz=-191978.88255455
C      -3.16126687     -0.64073060     -0.11508192
C      -1.87242224     -0.57940429      0.19650150
C      -1.13386948      0.66998933      0.57214049
C      -0.02330629      1.05693045     -0.42580274
N       1.04488763      0.08395603     -0.56360907
C       2.18947475      0.09881003      0.18945860
N       3.12625756     -0.76100962      0.25640778
H      -3.63697521     -1.57500155     -0.38297120
H      -3.79097306      0.24169211     -0.10610055
H      -1.28803495     -1.49536498      0.18550839
H      -1.83547676      1.50502889      0.64595908
H      -0.67535378      0.54377166      1.55838092
H      -0.46572909      1.23165924     -1.40876833
H       0.42557101      2.00015372     -0.10938778
H       0.86312088     -0.74099721     -1.11228687
H       2.28211952      1.00707819      0.78748163
H       2.94098638     -1.57208641     -0.33661494
