14
b3lypvtz=-227008.03703827
C      -1.50111571     -0.94414637     -0.79184844
C      -1.04183560      0.36359228     -0.22758806
C       0.07794065      0.57091258      0.45867776
N       0.61840953      1.78600412      0.87012126
O       0.89823989     -0.49466240      0.86396074
C       1.91186579     -0.87757030      0.04275063
O       2.15083430     -0.44608080     -1.04196577
H      -1.47147188     -0.93995988     -1.88529789
H      -0.88499929     -1.77272522     -0.44643738
H      -2.53360050     -1.15434121     -0.50162361
H      -1.65982063      1.23357106     -0.41863221
H       0.95221791      1.77424027      1.82463009
H       0.01078521      2.57380199      0.70248443
H       2.47275034     -1.67263610      0.55056846
