19
b3lypvtz=-192742.69424605
C       2.93600784     -0.33406144     -0.50898212
C       1.85998799     -0.30876750      0.58867194
C       0.78199084      0.70807756      0.34489538
C      -0.50195366      0.48983836      0.01706945
N      -1.42003420      1.52153030     -0.16286955
C      -1.09999716     -0.89142935     -0.18498726
N      -2.55172491     -0.89947198      0.04489914
H       2.50469929     -0.61105537     -1.47261276
H       3.72854884     -1.04777076     -0.27174894
H       3.39679626      0.64899897     -0.62640658
H       2.35184988     -0.09127105      1.54373899
H       1.43929425     -1.31036676      0.69214213
H       1.10069792      1.74547249      0.42192729
H      -1.04472827      2.41471939     -0.43362986
H      -2.27055406      1.25309273     -0.63135892
H      -0.55874520     -1.61531311      0.42905971
H      -0.94503981     -1.18401721     -1.22843377
H      -2.94040284     -1.79764846     -0.21238359
H      -2.75764701     -0.75274182      1.02641633
