16
b3lypvtz=-181119.51129868
C       2.13099221      0.53222661     -0.45453131
C       0.90754855      0.16322999     -0.12078313
C      -0.20573956     -0.68820079     -0.71944846
C      -0.34690831     -1.25607233      0.73515325
C       0.01073941      0.20728076      1.10784650
N      -1.20864794      0.92168790      0.63921732
C      -1.36941024      0.31986129     -0.73212914
H       2.76165914      1.08192783      0.23349207
H       2.55041051      0.29592871     -1.42490860
H      -0.06511687     -1.32148689     -1.59060141
H      -1.33129415     -1.60810515      1.04433702
H       0.43577232     -1.96608707      0.98851385
H       0.34571048      0.50775115      2.09612589
H      -1.00552372      1.91085628      0.55249002
H      -2.34321583     -0.16313848     -0.82999984
H      -1.26697603      1.06234019     -1.52477403
