13
b3lypvtz=-213777.10321996
C      -0.68132851      0.10632195      0.24053430
C       0.13606863     -0.47031981     -0.65325799
N       1.52261068     -0.37874074     -0.72648848
C       2.36771744      0.32378363      0.09903212
O       2.03190894      0.99269800      1.04641359
C      -2.11965924     -0.10484471      0.15973336
N      -3.01835757      0.36967061      0.92784518
H      -0.28743660      0.73180160      1.02825541
H      -0.28029632     -1.09406473     -1.43549488
H       1.96787718     -0.88684797     -1.47320406
H       3.41996198      0.20418472     -0.21074019
H      -2.46024052     -0.74660732     -0.65819645
H      -2.59882610      0.95296476      1.65556807
