17
b3lypvtz=-191961.04910553
C      -3.00794099     -0.54384090      0.02115740
N      -1.98740734      0.03390082     -0.45008925
C      -0.81836193      0.11787253      0.34958253
C       0.03987070      1.35367698      0.18759255
C       0.51532140      0.04223735     -0.35977260
C       1.67874150     -0.69010698      0.27784675
N       3.01313469     -0.25252681     -0.13866222
H      -3.90647462     -0.61572600     -0.58583286
H      -3.04332794     -0.98504514      1.02439363
H      -0.87056618     -0.31845498      1.34720171
H      -0.32119660      2.10124952     -0.50362302
H       0.51201549      1.74163539      1.08139758
H       0.43434673     -0.07056987     -1.43461886
H       1.59877084     -1.75929420      0.06491793
H       1.61799834     -0.58925574      1.36515108
H       3.11843692      0.74347520      0.02050142
H       3.13469498     -0.39660716     -1.13472777
