14
b3lypvtz=-180378.32399063
C      -1.43988760      0.72193173      0.13075459
C      -0.33180288      1.42074183     -0.19467715
C       0.97148299      0.77322659     -0.33875650
N       1.54369923      0.00000043      0.76805844
C       0.97148394     -0.77322589     -0.33875687
C      -0.33180128     -1.42074255     -0.19467772
C      -1.43988679     -0.72193381      0.13075432
H      -2.37983952      1.23780460      0.27879210
H      -0.38988974      2.48601950     -0.38010563
H       1.72259440      1.28856087     -0.92493576
H       0.89456637     -0.00000010      1.55067843
H       1.72259592     -1.28855917     -0.92493629
H      -0.38988691     -2.48602022     -0.38010662
H      -2.37983812     -1.23780782      0.27879168
