13
b3lypvtz=-190403.86444147
C      -1.11027712     -1.55408995     -0.84393664
C      -0.73874866     -0.38908740     -0.31417830
C       0.35276044     -0.23570685      0.72532689
C       1.61254365      0.25596348      0.17195469
C       2.65509019      0.63597555     -0.28219268
N      -1.45304587      0.75039118     -0.78220860
N      -1.15121654      1.81528965     -0.21456993
H      -1.89678785     -1.57866855     -1.58488818
H      -0.64444710     -2.48541319     -0.55487426
H       0.52150012     -1.20418525      1.19939571
H       0.01152992      0.45861285      1.49629272
H       3.57417927      0.98166160     -0.68411707
H      -1.73308047      2.54955689     -0.63830434
