19
b3lypvtz=-171809.37920074
C      -1.88904134      1.26305983      0.08845306
C      -1.10583169      0.00000016     -0.28964052
C      -1.88904199     -1.26305873      0.08845435
C       0.26798749      0.00000013      0.35498754
C       1.39871929      0.74465958     -0.28759583
C       2.54450791     -0.00000037      0.31866601
C       1.39871895     -0.74466038     -0.28759514
H      -1.35907575      2.16704814     -0.21444349
H      -2.87217405      1.27152241     -0.38609120
H      -2.04275773      1.31375207      1.16938916
H      -0.96307321     -0.00000044     -1.37604956
H      -2.04275841     -1.31374978      1.16939051
H      -2.87217470     -1.27152128     -0.38608991
H      -1.35907686     -2.16704761     -0.21444127
H       0.23651728      0.00000067      1.44785221
H       1.38618701      1.42144380     -1.12484253
H       3.47643756     -0.00000086     -0.23532645
H       2.66830082      0.00000011      1.40061221
H       1.38618642     -1.42144544     -1.12484115
