12
b3lypvtz=-202913.31998891
C       3.03340402     -0.34527205      0.01312314
C       1.83993096     -0.51992521     -0.00160142
C       0.44409173     -0.69247225     -0.01507263
C      -0.42951761      0.34397725     -0.00455590
N      -0.08005308      1.67507852     -0.05462938
C      -1.89054462      0.07078296     -0.00809800
O      -2.39311492     -1.02459253      0.02286145
H       4.08655637     -0.21456900      0.02314921
H       0.02956114     -1.69092411     -0.03978137
H      -0.73707664      2.33859346      0.32209783
H       0.88579974      1.89621621      0.12961781
H      -2.52348609      0.98324174     -0.04062374
