17
b3lypvtz=-191950.39341108
C      -0.72894621     -0.29464641     -1.35616692
C       0.72162480     -0.32695315     -0.87307664
C       0.25717518     -0.58892899      0.57002977
C      -1.20496774     -0.64348335      0.09142427
N      -2.24657010      0.18942211      0.66472263
C       0.92400993      0.69931584      0.21125756
N       2.22781407      0.93395084      0.78548023
H      -1.07189653      0.67269490     -1.73160382
H      -0.98860757     -1.06019898     -2.08515631
H       1.56225718     -0.76226862     -1.39526841
H       0.69362686     -1.23636202      1.32154186
H      -1.55799915     -1.67458841      0.11968433
H      -1.93186574      1.14811474      0.76293067
H      -2.49861900     -0.13473459      1.59126080
H       0.33008770      1.61010387      0.16764931
H       2.83256223      1.40655811      0.12321135
H       2.68031408      0.06200413      1.03207934
