19
b3lypvtz=-171829.53597221
C       3.21640413      1.01923158      0.00026801
C       2.75708561     -0.44683607     -0.00058393
C       1.30397838     -0.59382725     -0.00011623
C       0.10573120     -0.69630461      0.00027082
C      -1.35062710     -0.79526075      0.00059356
C      -2.05700744      0.57228377     -0.00012801
C      -3.57847341      0.44293927     -0.00012127
H       2.84378712      1.54209046     -0.88074171
H       4.30583204      1.07804750     -0.00012678
H       2.84448492      1.54084295      0.88232063
H       3.17056810     -0.95809889     -0.87498482
H       3.17124775     -0.95932434      0.87277522
H      -1.67585383     -1.36802737      0.87537728
H      -1.67611604     -1.36904063     -0.87342760
H      -1.72833195      1.13786326     -0.87483850
H      -1.72836412      1.13878186      0.87400211
H      -4.05747296      1.42301935     -0.00072790
H      -3.93072367     -0.09718496      0.88161560
H      -3.93059974     -0.09823613     -0.88127546
