12
b3lypvtz=-202864.01001207
C      -1.03765940      1.40884860     -0.23367633
C      -0.70063010      0.11911027     -0.21452923
C      -1.64549660     -0.94871237     -0.22326534
C      -2.44126751     -1.84763069     -0.23063810
O       0.58729309     -0.39238773     -0.18389696
N       1.57637079      0.60140036     -0.17307112
C       2.72809244      0.07712109     -0.14592743
H      -2.08302990      1.67147007     -0.25715323
H      -0.29410584      2.18755507     -0.22624659
H      -3.14701400     -2.64044890     -0.23721723
H       2.89122587     -0.99715554     -0.13354798
H       3.56622117      0.76082978     -0.13526099
