17
b3lypvtz=-217673.60805588
O      -2.65711907      0.71411548     -1.09922517
C      -1.41143504      1.02061060     -0.50153374
C      -0.62443563     -0.24369668     -0.16711258
O      -1.45838511     -1.11423946      0.62175309
C       0.69397530      0.05244087      0.49603658
C       1.93953316      0.21735007     -0.33742474
C       1.77121549     -0.99683974      0.53259750
H      -3.02175844     -0.02403714     -0.59461855
H      -1.54893471      1.61075430      0.41789662
H      -0.85412833      1.63678261     -1.20887235
H      -0.45549656     -0.80090170     -1.09180505
H      -1.43337763     -0.81067693      1.53588907
H       0.62057900      0.69615291      1.36767739
H       2.65549319      0.97040392     -0.03996859
H       1.84828359      0.08983726     -1.40779491
H       1.55873102     -1.94211053      0.05242216
H       2.37725977     -1.07594584      1.42418326
