14
b3lypvtz=-180334.505801
C      -3.36162780     -0.97942695     -0.12914030
C      -2.54441886     -0.12185388      0.05033777
C      -1.56014752      0.93954946      0.27485737
C      -0.18377553      0.55120814     -0.03832818
C       0.95139980      0.25430370     -0.29044032
C       2.32238512     -0.14304581     -0.60000651
N       3.11978366     -0.32712470      0.62188756
H      -4.08147059     -1.74241128     -0.28984956
H      -1.83646510      1.81428141     -0.32315681
H      -1.61554576      1.26270567      1.31962489
H       2.79491955      0.64564802     -1.19191744
H       2.28124633     -1.03280975     -1.24488912
H       2.71107758     -1.05911381      1.19121319
H       4.05407412     -0.63185223      0.37368946
