13
b3lypvtz=-213764.03837859
N      -1.91742521      0.09103341      0.98314151
C      -0.84893147      0.08224539      0.30302615
C      -0.33724356     -1.02613750     -0.58608358
N       1.11634640     -1.11438771     -0.67772770
C       1.81994023     -0.18969850     -0.18890103
O       1.43556796      0.96323202      0.40873309
C       0.03614001      1.30039921      0.32778086
H      -2.43967312     -0.77939036      0.86123048
H      -0.73770673     -0.88980423     -1.59790701
H      -0.71949730     -1.98747052     -0.23548263
H       2.90323662     -0.25596374     -0.20080090
H      -0.11656267      1.88540460     -0.58592061
H      -0.19419116      1.92053793      1.18881137
