15
b3lypvtz=-237821.08721395
C       2.43830610      0.01589225     -0.32046537
O       1.09336732     -0.09894415     -0.80017830
C       0.12985247      0.43055623     -0.01040984
C      -1.03861085     -0.18827222      0.20751319
N      -2.01352617      0.53250941      0.96603055
N      -1.32645164     -1.52902766     -0.17010714
O       0.43952364      1.64477511      0.52256186
H       2.74212540      1.05897090     -0.24564148
H       2.54496898     -0.46382750      0.65613089
H       3.05828206     -0.49882948     -1.05012870
H      -2.36962571     -0.04158097      1.72352647
H      -2.81066163      0.81425752      0.40362885
H      -0.49872302     -1.97601571     -0.54467038
H      -2.04914780     -1.57715189     -0.88294378
H      -0.33967916      1.87668816      1.05586179
