12
b3lypvtz=-228820.5918534
N       0.84612083      2.27661400     -1.58571391
C       0.46351706      1.41108544     -0.93178043
C       0.01076775      0.30498938     -0.11442898
C       1.10534150     -0.44481291      0.60923316
F       1.91174559     -1.11712534     -0.29676653
C      -1.21861182     -0.44068457     -0.51083708
N      -1.27456006      0.53092726      0.57788821
H       0.65849802     -1.18206458      1.28102590
H       1.73986701      0.23466790      1.18054094
H      -1.74209546     -0.14710716     -1.41019982
H      -1.23730489     -1.49986626     -0.28378046
H      -1.26318554      0.07347684      1.48481900
