15
b3lypvtz=-193562.554519
C       2.59773487     -0.40631995     -0.28278271
C       1.49468821      0.09932656      0.25857355
C       0.12464932     -0.18655922     -0.23183363
C      -0.91684106      0.97370289     -0.29272371
C      -2.06118186     -0.05958357     -0.26566640
C      -1.01547094     -0.43157568      0.80489977
O      -0.94899188      1.00131604      1.19251150
H       3.57886058     -0.17268820      0.10899092
H       2.56123283     -1.07459659     -1.13567838
H       1.56131193      0.76341474      1.11228236
H       0.12093003     -0.85814229     -1.09188293
H      -0.84892603      1.92775058     -0.81046143
H      -2.17695319     -0.72140250     -1.12359585
H      -3.00546150      0.31123278      0.12395369
H      -1.06558132     -1.16587557      1.60564317
