14
b3lypvtz=-203691.34412994
O       2.28828836      0.66772589     -1.10615507
C       1.28513499      0.37138437     -0.51430020
C       0.21884715      1.36308992     -0.02509390
C      -0.92961259      0.50254089      0.43729944
N      -1.44230753     -0.37641043     -0.62987480
C      -0.53390448     -0.93347808      0.38929027
C       0.88498468     -1.05451978     -0.10607722
H      -0.04035083      2.05182068     -0.82932308
H       0.64330765      1.95072792      0.79417006
H      -1.61545567      0.86669563      1.19031383
H      -2.39991030     -0.64696280     -0.43260224
H      -0.92390238     -1.64329991      1.10632566
H       1.00049971     -1.72733214     -0.95590101
H       1.56448124     -1.39198218      0.68202826
