13
b3lypvtz=-239649.18551405
C      -2.28952878      0.44126658     -0.66228984
N      -1.30227811     -0.27755365      0.12725667
N      -0.01056214      0.01737506     -0.19254893
C       0.88783359     -0.87180958     -0.01764721
N       2.23899897     -0.63914772     -0.28467366
C       2.72558266      0.48698730     -0.05071159
F       3.99414098      0.74679186     -0.37904078
H      -2.28282870      0.16706480     -1.72392053
H      -2.09201331      1.50875298     -0.58156075
H      -3.27763414      0.23778044     -0.25034559
H      -1.49564448     -1.27279287      0.20832378
H       0.66142136     -1.88932412      0.30451034
H       2.24261210      1.34460893      0.41044811
