15
b3lypvtz=-214507.39435938
C      -2.57667468      0.03920127      0.08473200
N      -1.57879696     -0.74599100     -0.00363931
C      -0.26785661     -0.25983042     -0.04395763
C       0.65882883     -1.24098411     -0.01827882
O       2.00985130     -1.03199431     -0.08823546
N      -0.05945099      1.12259742     -0.06133410
C       1.25975612      1.72767667      0.06373228
H      -2.50210786      1.12441787      0.17526799
H      -3.57246681     -0.39375626      0.09930137
H       0.31099844     -2.25769637      0.09061398
H       2.45991936     -1.87471849      0.00525385
H      -0.64000452      1.58484804     -0.74717706
H       1.73927522      1.37789394      0.97550927
H       1.12896063      2.80706971      0.14588656
H       1.93382552      1.51908905     -0.77218292
