10
b3lypvtz=-228064.02848619
C      -1.39192370      1.57483529      0.24558743
N      -0.39506089      1.17514243     -0.42293162
C       0.24403436     -0.02960668     -0.08144476
C       1.67063819      0.01982324      0.02549684
N       2.81686594      0.06361752      0.13397652
C      -0.34577804     -1.22859838      0.02484622
F      -1.66739567     -1.37595003     -0.09723692
H      -1.89473847      2.48420267     -0.07155631
H      -1.77463815      1.06500191      1.13201266
H       0.18756144     -2.15840498      0.15678794
