17
b3lypvtz=-194347.26045621
C       2.04133325      0.03672253      0.11720843
C       0.68677528     -0.22726614     -0.51330864
C      -0.39113967     -1.13954054      0.16153777
C      -1.43459153     -0.47686325     -0.77898538
C      -0.54302504      0.67162295     -0.22226095
C      -0.67651198      0.00074237      1.17825500
O      -0.57379908      2.02313593     -0.54022712
H       2.50877367      0.90591494     -0.34971229
H       1.99447545      0.22574874      1.18878018
H       2.70520015     -0.81625449     -0.03966575
H       0.80737857     -0.43582071     -1.57938653
H      -0.30432770     -2.19854390      0.38349540
H      -2.47131468     -0.50013212     -0.44161680
H      -1.34294456     -0.69114064     -1.84366093
H      -1.67316180      0.00494963      1.62162678
H       0.08501645      0.22322397      1.92065644
H      -1.41813678      2.39350073     -0.26273561
