15
b3lypvtz=-214500.81528023
C      -3.11949880     -0.19450781     -0.00000570
C      -1.80898275     -0.44032159      0.00000322
N      -0.82095343      0.53156684      0.00000360
C       0.54310356      0.29321717     -0.00000162
C       1.43496900      1.49999551     -0.00000164
N       0.96129435     -0.91754861     -0.00000373
O       2.38316570     -0.94995980     -0.00000342
H      -3.82324690     -1.01182488     -0.00000331
H      -3.52155930      0.81122991     -0.00001523
H      -1.41609946     -1.44651078      0.00001207
H      -1.10805576      1.49446269     -0.00000989
H       2.08422867      1.48469773     -0.87526120
H       0.86071247      2.42541607     -0.00000941
H       2.08421723      1.48470630      0.87526674
H       2.55648441     -1.89525572     -0.00000746
