13
b3lypvtz=-213777.26160335
C       2.70073494      0.11155530     -0.28181686
N       1.77116187     -0.53256640      0.28249280
C       0.44806662      0.00598625      0.17689071
O       0.24382586      1.21972673      0.25531683
C      -0.57512005     -0.98998692      0.01573445
C      -1.89161193     -0.65293512     -0.11112519
N      -2.37993545      0.59597797     -0.07958106
H       2.52392018      1.02203857     -0.86002028
H       3.72473573     -0.24322111     -0.18941947
H      -0.28974941     -2.02898476     -0.00495248
H      -2.62913983     -1.43557828     -0.24674269
H      -1.72041197      1.35233374      0.05758957
H      -3.36191056      0.77208104     -0.17159032
