13
b3lypvtz=-213733.53289031
C      -0.88830970      0.13653689     -0.70739256
C       0.63036564      0.13626945     -0.50497131
C       0.34149447      0.76261337      0.90970351
O       1.04496727      1.16727490      1.79064085
C      -1.14139991      0.78426505      0.64005953
N      -1.57248864     -0.59380214      0.33631201
N       1.36228069     -1.08639002     -0.74814888
H      -1.41747052      0.32714274     -1.62966999
H       1.09176090      0.93421707     -1.09511878
H      -1.88640130      1.50353803      0.94636878
H      -1.00079019     -1.29857027      0.79267011
H       2.35489540     -0.94327501     -0.60976558
H       1.08109588     -1.82982006     -0.12068770
