13
b3lypvtz=-242074.24875613
C       1.10244192      0.39920909     -0.12307151
C      -0.40490350      0.29747763     -0.40394271
C      -0.96373820     -1.06310363      0.02144898
F      -2.28274064     -1.17678287     -0.39178415
C      -1.10823308      1.39622327      0.25824534
N      -1.63047127      2.26646574      0.79919078
O       1.73896830     -0.58983361     -0.91829501
H       1.44491475      1.40507144     -0.38058405
H       1.29009625      0.23997332      0.94472537
H      -0.55392712      0.39865917     -1.48209282
H      -0.93700796     -1.17518064      1.10693341
H      -0.38406178     -1.85441033     -0.44960171
H       2.68866233     -0.54376855     -0.77713040
