14
b3lypvtz=-257913.6469876
N       2.61110140     -0.83318990     -0.46594380
C       1.97617221      0.25847306     -0.38697319
C       1.04512980      0.71788299      0.70503857
C      -0.37110233      1.02826882      0.19588501
C      -1.11860204     -0.19823041     -0.27291116
F      -2.36587188      0.15892183     -0.70777139
F      -1.29118193     -1.07386395      0.76970688
H       2.42029001     -1.42587667      0.34616617
H       2.10913350      0.96681725     -1.21109605
H       1.45502253      1.63428906      1.14000795
H       1.00383513     -0.02895025      1.49982348
H      -0.33388801      1.73358382     -0.63737627
H      -0.96531381      1.48880706      0.98670047
H      -0.62839558     -0.74612971     -1.07996267
