18
b3lypvtz=-205193.38464822
C      -1.99017177     -1.05246276      0.17637991
O      -0.76494976     -0.75821297     -0.47442335
C      -0.13121180      0.42296319     -0.04674815
C      -0.79731950      1.70392852     -0.48282377
C       0.60673078      0.34585704      1.27614282
C       1.37489941      0.31129162     -0.01880522
N       2.08817562     -0.88430019     -0.39336128
H      -2.76646574     -0.31767265     -0.05843957
H      -2.31253055     -2.02720730     -0.18600936
H      -1.86670259     -1.09665009      1.26364276
H      -1.76968480      1.84578037     -0.00494656
H      -0.17878760      2.56326021     -0.22116908
H      -0.94457198      1.70532676     -1.56491909
H       0.53872528     -0.58990028      1.81664582
H       0.66514599      1.22451953      1.90489017
H       1.91850308      1.21241841     -0.27673006
H       2.26045639     -0.87525460     -1.39351881
H       1.49922654     -1.69227182     -0.22437516
