17
b3lypvtz=-215291.91098326
C       2.79361648      0.05516936     -0.31962249
N       1.60108482     -0.73086901     -0.06365301
C       0.52664054     -0.10458521      0.22873481
N       0.39018918      1.26151483      0.36202657
C      -0.72411219     -0.90307186      0.52198794
C      -1.89416918     -0.62674573     -0.41403718
O      -2.41326804      0.68308345     -0.13785850
H       3.61593552     -0.61077490     -0.57733998
H       3.10237357      0.64211278      0.55595272
H       2.66889538      0.75823565     -1.15706499
H       1.11122088      1.84746663     -0.02283201
H      -0.54853518      1.62509053      0.30313342
H      -1.05416759     -0.70798367      1.54670496
H      -0.45042800     -1.95367663      0.44963269
H      -2.67259714     -1.37828885     -0.24819847
H      -1.56733176     -0.69795560     -1.45679756
H      -3.09293530      0.89227722     -0.78439793
