17
b3lypvtz=-191947.53188003
C       3.23595788      0.36048109     -0.12503249
N       2.23015708     -0.41432909     -0.03037684
N       1.02006097      0.10481545      0.28699407
C      -0.12946256     -0.68344699     -0.13891792
C      -1.39397788     -0.14765213      0.47840071
C      -2.71653071     -0.39777273     -0.18897863
C      -2.13468037      0.99061061     -0.18009000
H       4.20256938     -0.08196152     -0.32346200
H       3.17122312      1.44520445     -0.00194907
H       0.91970479      1.10505410      0.12607065
H      -0.23231576     -0.69938086     -1.23378927
H       0.05550544     -1.71013829      0.17971914
H      -1.39347077     -0.15109673      1.56154655
H      -2.71621604     -0.93780442     -1.12640352
H      -3.57345450     -0.59790480      0.43850703
H      -1.74495784      1.37452765     -1.11423379
H      -2.59735022      1.73713022      0.45009540
