13
b3lypvtz=-190459.03579605
N       2.72674002      0.28335810     -0.00000544
C       1.71445777     -0.48798131      0.00000739
C       0.29363210     -0.13163566      0.00000385
C      -0.29949699      1.08199058      0.00000837
C      -1.73934028      0.84776779     -0.00000691
N      -2.06840934     -0.39637632     -0.00000622
C      -0.81959902     -1.14271148     -0.00000658
H       2.44299838      1.26577638     -0.00001400
H       1.92145479     -1.56037095      0.00001059
H       0.17596430      2.05186253      0.00000890
H      -2.49222308      1.62816313      0.00001404
H      -0.78761220     -1.80140011      0.87504084
H      -0.78760446     -1.80139468     -0.87505783
