14
b3lypvtz=-180363.54764854
C      -3.72964852     -0.20059934     -0.07803483
C      -2.52929025     -0.22629708      0.02765659
C      -1.12395621     -0.29684896      0.16612208
C      -0.29394478      0.74964601     -0.03297330
C       1.15047754      0.74816571      0.02521137
C       1.93457111     -0.34037046     -0.10687778
N       3.29964668     -0.37904973      0.05469801
H      -4.78559401     -0.16860988     -0.17359265
H      -0.72211046     -1.26082539      0.46164291
H      -0.75238095      1.70693460     -0.25818374
H       1.62922841      1.71322978      0.16074810
H       1.49258268     -1.30580496     -0.32544140
H       3.78405720      0.50325793      0.10113714
H       3.80277358     -1.09270222     -0.44481651
