17
b3lypvtz=-194350.42471665
C      -1.58277314      0.55545905      0.92964452
C      -1.32224262     -0.20434922     -0.35086399
C      -0.49883677     -1.44318985     -0.43812120
O       0.63195765     -1.38559501      0.44285420
C       1.22048570     -0.31770467     -0.37133389
C       1.80000804      0.83912739      0.41062884
C      -0.05787042     -0.20983206     -1.19787368
H      -1.61684435      1.63381202      0.76149557
H      -2.54543736      0.25495969      1.34883296
H      -0.81922171      0.34451408      1.67536755
H      -2.18585576     -0.26269375     -1.00761373
H      -0.83438462     -2.41950789     -0.76140877
H       2.00622987     -0.77050808     -0.98482627
H       2.57940601      0.47956169      1.08541298
H       1.05026738      1.36486562      0.99665462
H       2.25888133      1.55028120     -0.28028800
H      -0.08376923     -0.00910022     -2.25866172
