17
b3lypvtz=-215288.9893619
N      -1.26355376     -0.90547014      1.07936781
C      -1.16559451     -0.03235513     -0.07641684
N      -0.86386479      1.35668165      0.31219400
C      -0.06890622     -0.51318528     -1.03548224
C       1.30382165     -0.71170918     -0.38029215
C       1.94433140      0.53496094      0.18246599
O       2.49777557      0.58973497      1.25152125
H      -0.50008360     -0.72864813      1.72337305
H      -2.12698161     -0.74623610      1.58330350
H      -2.12480002     -0.11687298     -0.60367714
H      -0.93323165      1.98581468     -0.48092944
H      -1.51894333      1.68254024      1.01347466
H      -0.38706160     -1.46105484     -1.47106999
H       0.01232564      0.20212889     -1.85999956
H       1.26690548     -1.46934650      0.40246339
H       1.99515378     -1.08225386     -1.14719961
H       1.93280759      1.41517077     -0.49329668
