17
b3lypvtz=-191969.24935541
C      -1.79832959      0.96405079     -0.13598401
C      -0.71466447      0.16975594      0.55148768
C       0.72021620      0.23729825      0.04660866
C      -0.09175432     -1.04516740     -0.06484712
N      -0.49403527     -1.43839296     -1.39016746
C       1.84287573      0.32766368      0.99622128
N       2.92617687      0.97695437      0.86822652
H      -2.78639058      0.57068255      0.11481721
H      -1.76966309      2.00945740      0.17700361
H      -1.68701611      0.92303870     -1.21778764
H      -0.80468246      0.12555776      1.63115555
H       0.85424817      0.76411643     -0.89131384
H       0.19404886     -1.82836502      0.63487856
H      -1.30276821     -2.04803849     -1.35833843
H       0.24843527     -1.94216565     -1.85994558
H       1.71596546     -0.23706908      1.92551514
H       2.94733755      1.47062273     -0.02753013
