13
b3lypvtz=-237096.25790444
C       2.59731881      0.72903908     -0.00001694
O       2.04193343     -0.59775824     -0.00002117
C       0.72068739     -0.70217986     -0.00001832
N      -0.06557047      0.29683365      0.00000270
C      -1.45313412     -0.03609651      0.00002944
N      -2.21075924      1.08984467      0.00008797
O      -1.92026601     -1.15998097      0.00003914
H       3.67432229      0.59161409     -0.00000907
H       2.27668148      1.27338070     -0.88677863
H       2.27666741      1.27338020      0.88673992
H       0.39241492     -1.73940358     -0.00000020
H      -1.77381241      1.99248339      0.00008323
H      -3.21059149      1.00448937      0.00012292
