14
b3lypvtz=-227024.78137557
N      -2.11611336     -0.09759233      0.70962416
C      -1.21859431      0.22108463     -0.26233460
O      -1.35351434      1.19583249     -0.97818848
C      -0.04837802     -0.75067433     -0.40091457
C       1.10028538     -0.19578100     -1.24996545
C       1.88104461      0.88912865     -0.54990377
O       3.07985384      0.88526962     -0.42533266
H      -2.92798932      0.48504373      0.82337211
H      -2.00617563     -0.90049255      1.30156353
H      -0.43582758     -1.65769169     -0.87312887
H       0.30465586     -1.05104722      0.58938314
H       0.67355106      0.24178499     -2.15701323
H       1.79384872     -0.98698810     -1.53259835
H       1.27335307      1.72212313     -0.14426297
