16
b3lypvtz=-227747.80329464
C      -0.20483090      2.14272644      0.33744368
N      -0.30231409      0.96177957     -0.52868888
C      -0.03468106     -0.29692757      0.11339632
C      -1.06528493     -1.14186170      0.22576101
O      -2.31022647     -0.85246509     -0.20860965
C       1.34507816     -0.62994479      0.57126927
O       2.22266403     -0.58376360     -0.56725367
H       0.78161568      2.27965125      0.79811392
H      -0.94358146      2.06656296      1.13553862
H      -0.43113944      3.03416199     -0.24855324
H       0.32095481      1.06903679     -1.32088484
H      -0.98422474     -2.12203952      0.67566277
H      -2.22135810      0.01945608     -0.63743567
H       1.35021920     -1.62415518      1.03137032
H       1.69175702      0.08762679      1.32603152
H       3.13111628     -0.56192142     -0.25244747
