14
b3lypvtz=-226972.53967447
N       2.55575467      0.41458701      0.69197164
C       1.28699688      0.35700190      0.64963506
C       0.46723591     -0.50839207     -0.21876676
C      -0.77928968      0.03966435     -0.92684807
O      -1.23077235      1.33427314     -0.64011430
C      -0.95196472     -0.91785590      0.19602128
O      -1.49204210     -0.45236834      1.38925692
H       2.97355928     -0.23722655      0.02325122
H       0.74119636      1.00760582      1.33143453
H       1.02527293     -1.24252902     -0.78853038
H      -0.95460015     -0.29121802     -1.94478725
H      -0.60194579      1.98092647     -0.97623971
H      -1.24328081     -1.93692475     -0.02322811
H      -1.79612043      0.45235596      1.23674393
