14
b3lypvtz=-203662.4148074
C      -3.48740672     -0.11353809     -0.00323207
N      -2.08540839     -0.49739443      0.09869622
C      -1.18153849      0.64176462     -0.02268745
C       0.21884154      0.24715005      0.00441016
C       1.38527167     -0.05661919      0.00603536
C       2.76286491     -0.47313009      0.02204735
O       3.70617037      0.28159707     -0.03327952
H      -3.73575472      0.44345538     -0.92001909
H      -3.75745448      0.51297134      0.84940445
H      -4.10884740     -1.00736563      0.03444581
H      -1.85662079     -1.18539924     -0.60780055
H      -1.36694236      1.32150946      0.81619628
H      -1.35006533      1.24032524     -0.93559921
H       2.90654517     -1.56693448      0.09106927
