17
b3lypvtz=-194354.0505919
O       2.68596894      0.15576371      0.62202427
C       1.49884368     -0.63211248      0.54662310
C       0.51394983     -0.11346414     -0.48573461
C      -0.14919892      1.28944311     -0.28236475
C      -1.52885383      0.63590159     -0.40904926
C      -1.71160079     -0.39968516      0.65542982
C      -0.88408075     -0.74485956     -0.55125757
H       3.12361137      0.12868049     -0.23441265
H       1.06672070     -0.59408399      1.54675437
H       1.73756624     -1.68309023      0.33576495
H       0.98422825     -0.15431100     -1.47231396
H       0.05617008      1.78423365      0.66861358
H       0.08406573      1.98079496     -1.08963513
H      -2.36633400      1.04150388     -0.95828524
H      -2.68466024     -0.87226069      0.68436515
H      -1.25869570     -0.26665539      1.63138205
H      -1.16750060     -1.55579876     -1.20770411
