14
b3lypvtz=-203693.08596446
C       1.82397577     -1.12916191     -0.03121160
C       0.60610543     -0.59164431     -0.02451839
O      -0.53467054     -1.34122773     -0.04573865
C      -1.68643731     -0.49933901      0.19249488
C      -1.25499815      0.91074867     -0.20099410
C       0.24744815      0.85600415     -0.02515877
N       0.98219189      1.87869156      0.10187390
H       2.69581322     -0.49302068     -0.05871120
H       1.96938975     -2.19868037     -0.02518084
H      -1.94969779     -0.56211055      1.25153542
H      -2.50575169     -0.89983951     -0.39954949
H      -1.48107872      1.11186122     -1.25081930
H      -1.70378673      1.69751981      0.40026645
H       1.96284572      1.61641265      0.21344370
