17
b3lypvtz=-194372.10870185
C       2.33771413     -0.68454998     -0.21054408
C       1.12199579     -0.45283685     -0.68415740
C       0.00404577      0.24057428      0.06346101
C      -0.48403322      1.45007135     -0.74213069
O       0.53777782      0.68355104      1.32169085
C      -1.07828697     -0.78480383      0.34646040
C      -2.31471363     -0.80499911     -0.13529568
H       3.08180472     -1.18909273     -0.81270952
H       2.62203188     -0.37313954      0.78453222
H       0.85211203     -0.77573905     -1.68404659
H      -0.81688547      1.16343959     -1.74024016
H      -1.31467497      1.94366756     -0.23405870
H       0.33470454      2.16079900     -0.84245471
H      -0.19348555      1.02566141      1.84587918
H      -0.74993752     -1.56574866      1.02510818
H      -3.00673487     -1.58981573      0.14083975
H      -2.68568947     -0.05423677     -0.82068407
