15
b3lypvtz=-191207.60014941
N      -2.51464490     -1.18009384     -0.16040399
C      -1.92707115     -0.20193370     -0.01907178
C      -1.20566860      1.06199234      0.18263616
N       0.14280922      1.02557593     -0.36943342
C       1.10138800      0.29423621      0.41736664
C       1.30475681     -1.16569394      0.11587249
C       2.35605168     -0.15989507     -0.26957293
H      -1.23750860      1.28767395      1.25954198
H      -1.77154579      1.84494808     -0.32559130
H       0.46032378      1.97248304     -0.53175982
H       1.19673235      0.58788532      1.46314288
H       1.50257860     -1.83097314      0.94421955
H       0.70421084     -1.58775644     -0.67591656
H       3.28006081     -0.13081271      0.29027525
H       2.44941893      0.08045898     -1.31925213
