15
b3lypvtz=-214530.01759449
C      -1.70393539      1.42259752     -0.00087842
C      -1.46815925     -0.05559522     -0.00517475
N      -2.62469735     -0.83314672      0.08561519
C      -0.24003908     -0.61048453     -0.01972150
N       0.91727785      0.15412775     -0.00315957
C       2.04662495     -0.40059137     -0.00161062
O       3.17914355      0.35570158      0.00638066
H      -2.25658267      1.71791235      0.89468717
H      -0.75969647      1.95710556     -0.03138264
H      -2.30559588      1.71961042     -0.86619154
H      -3.42727746     -0.44911443     -0.39029302
H      -2.50132121     -1.81163752     -0.12894780
H      -0.14964415     -1.69965139     -0.02841940
H       2.21136447     -1.48408190     -0.00651303
H       3.94470209     -0.22639509      0.01157425
