12
b3lypvtz=-223820.36327705625
C       0.11122705     -0.03520819      0.76214140
C       1.26269926      0.64078371      0.06523798
N       2.22014299     -0.06034643     -0.44681031
N       3.06746604     -0.68603150     -0.87127179
C      -1.14561614     -0.10147296     -0.08176334
N      -1.76165753     -1.11616358     -0.51620170
O      -1.60690354      1.14043950     -0.36254660
H       0.39343496     -1.04432555      1.05859188
H      -0.12686422      0.51927224      1.67410160
H       1.29073005      1.70033426     -0.12939195
H      -1.31164414     -1.98173674     -0.23623545
H      -2.39301478      1.02445526     -0.91585172
