15
b3lypvtz=-214498.92592451
C       2.45300767     -1.48979191     -0.32386687
N       1.74539692     -0.53926588      0.14278197
N       0.57181908     -0.25914131     -0.45333086
C      -0.34285743      0.61610216      0.12442590
C      -0.14693418      1.30612514      1.25089569
C      -1.59700022      0.74435425     -0.70207559
O      -2.16229246     -0.52482487     -1.04731287
H       3.40326442     -1.69196514      0.14990076
H       2.14957794     -2.10071825     -1.17760112
H       0.20171035     -0.90869582     -1.13952029
H       0.77126620      1.22825677      1.81152394
H      -0.91163069      1.98203098      1.60237619
H      -1.36883024      1.21694638     -1.65968575
H      -2.31563322      1.37417561     -0.17435841
H      -2.45096414     -0.95358811     -0.23435269
