18
b3lypvtz=-181905.04653358
C       3.39582524     -0.53374096     -0.37093465
C       2.45171576      0.04418779      0.36104891
C       0.98444623     -0.25467791      0.28113671
C       0.15303801      0.97997040     -0.09362953
C      -1.33716496      0.78122087     -0.14298351
C      -1.99084681     -0.36623131      0.04588275
N      -3.36570565     -0.56654437     -0.11174558
H       3.15793514     -1.29704876     -1.10320624
H       4.43974999     -0.26884567     -0.26484900
H       2.74026746      0.80637880      1.08126226
H       0.81430419     -1.05541509     -0.44272810
H       0.64250833     -0.62645887      1.25384571
H       0.38211038      1.78457861      0.61585778
H       0.50307898      1.35106395     -1.06425305
H      -1.91689135      1.67029936     -0.38122272
H      -1.45412441     -1.27793419      0.27975304
H      -3.76400511     -1.24762405      0.51612954
H      -3.91463942      0.28070939     -0.12360532
