10
b3lypvtz=-223040.81480884
C      -2.14673707     -0.19953377     -0.37491668
N      -1.10507570     -0.12824811      0.33800562
O       0.01907702      0.15712668     -0.47015810
C       1.17690051      0.24326134      0.27409000
N       1.35998310      0.11004479      1.50717240
C       2.27485565      0.53653120     -0.62450262
N       3.14743755      0.76925971     -1.33593850
H      -2.14320337     -0.05661795     -1.45145385
H      -3.06827394     -0.41530124      0.14933838
H       0.48503624     -0.09258665      1.98836336
