17
b3lypvtz=-191950.92971833
C      -1.75554263     -0.62378624      1.00643796
N      -1.43381457      0.44558947      0.38794712
N      -0.33315461      0.49252528     -0.41287715
C       0.06346116      1.85328044     -0.74969420
C       0.72946085     -0.46765916     -0.23681134
C       0.91710870     -1.39847991     -1.16481106
C       1.56654101     -0.32832440      1.00683137
H      -1.18990054     -1.55305449      0.96749281
H      -2.67256249     -0.59677669      1.57976424
H       0.59419047      2.36138696      0.06537124
H      -0.83592968      2.41962452     -0.97878697
H       0.70808455      1.83146934     -1.62746124
H       1.71104598     -2.12856459     -1.07578353
H       0.28070070     -1.44399698     -2.03759299
H       2.29720198     -1.13210415      1.08167678
H       0.94375508     -0.34112991      1.90320962
H       2.10460303      0.62293252      1.00679733
