14
b3lypvtz=-231996.91725011
C      -0.53545612      1.95182243      0.00000112
C      -0.66478704      0.45141582      0.00000057
C       0.54200143     -0.35854686      0.00000001
C       1.78425089      0.11770572      0.00000042
F       2.84700663     -0.71484214     -0.00000239
C      -1.89250580     -0.09675535      0.00000040
O      -2.23015804     -1.41323436      0.00000037
H       0.00818946      2.30664663      0.88007806
H      -1.51459026      2.42906040      0.00000106
H       0.00818973      2.30664713     -0.88007547
H       0.46262852     -1.44150882     -0.00000142
H       2.08182820      1.15578758     -0.00000132
H      -2.78052219      0.52060629      0.00000033
H      -1.44098239     -1.96519249      0.00000126
