17
b3lypvtz=-191973.34269383
C       1.97869672      1.20473438     -0.19638261
C       1.45728897     -0.09972186      0.39425542
N       2.06351590     -1.23097565     -0.33309358
C      -0.03892790     -0.26129397      0.33759196
C      -0.94190073      0.66146457      0.01004710
C      -2.40106109      0.43727841     -0.00163461
N      -3.03917616     -0.64622505     -0.18628966
H       1.58834608      2.07005742      0.33976493
H       3.06730169      1.23874880     -0.12367597
H       1.70723469      1.28448062     -1.24926199
H       1.72784361     -0.11401005      1.46402403
H       1.76298237     -2.11369868      0.06550665
H       3.07248936     -1.20007260     -0.23758695
H      -0.39259542     -1.24810395      0.63071987
H      -0.62503710      1.66924842     -0.23441683
H      -3.00326475      1.33406740      0.16253065
H      -2.39689224     -1.42088022     -0.37057542
