14
b3lypvtz=-224575.90140675
O       2.69055649     -0.87811084     -0.38118371
N       1.99802383      0.33726591     -0.73294787
C       0.74840155      0.16605183     -0.50644002
N       0.09977714     -0.97327432     -0.07199427
C      -1.15922027     -0.58889385      0.56353310
C      -1.49120640      0.72554158     -0.17251428
N      -0.19761478      1.16318247     -0.70446865
H       3.60097984     -0.64348528     -0.57562315
H       0.69251897     -1.66310114      0.36072356
H      -1.04103250     -0.41950761      1.64032039
H      -1.92734126     -1.34739114      0.41677791
H      -1.92700011      1.46864137      0.49472224
H      -2.19679640      0.54669727     -0.98743619
H       0.10985390      2.10638376     -0.54316905
