17
b3lypvtz=-194357.72659887
C      -2.18805943      1.01470129     -0.28155916
C      -1.58745155     -0.15108138      0.45371189
O      -1.12285918     -1.26271186     -0.32835633
C      -0.16269064     -0.51353444      0.43529410
C       0.89562119      0.22275038     -0.30638999
C       2.04846844      0.81601341      0.46526967
C       2.27241925     -0.38292647     -0.41143700
H      -3.19481169      0.76453144     -0.62180647
H      -1.59910581      1.29494314     -1.15257874
H      -2.26471549      1.88035640      0.38040822
H      -2.15029270     -0.45763996      1.33419941
H       0.21201741     -1.05575179      1.30356207
H       0.55517816      0.77735920     -1.16935124
H       2.06605079      0.66974288      1.53721564
H       2.43439987      1.77265066      0.14249241
H       2.81429391     -0.25084644     -1.33727496
H       2.43663146     -1.33813047      0.06914948
