16
b3lypvtz=-181123.13918823
C      -1.42129330     -0.51190024      0.65066734
C      -1.63549180      0.85516457     -0.09397509
C      -0.17728485      0.73329096     -0.47965767
C       1.00062190      1.28812137     -0.19402795
N       1.96464226      0.32661847      0.19483121
C       1.27750013     -0.99632689      0.32719593
C      -0.13816208     -0.75541147     -0.21830125
H      -2.22064031     -1.24858756      0.56521600
H      -1.17209207     -0.35740495      1.70039857
H      -1.93628506      1.71923112      0.49618783
H      -2.32144933      0.74090798     -0.93609768
H       1.24999478      2.33660526     -0.10191687
H       2.82395815      0.30674066     -0.33872285
H       1.27842641     -1.29825938      1.37954412
H       1.80928164     -1.76351560     -0.23569473
H      -0.38172646     -1.37527430     -1.08604705
