16
b3lypvtz=-202034.95761012
C      -2.84835634     -0.59247095      0.01141703
N      -1.66614662      0.23208448     -0.09986120
C      -0.53141825     -0.31568840      0.05808044
C       0.71542879      0.46161915      0.01340603
C       0.62147124      1.96052059     -0.00265140
N       1.89202756     -0.06017355      0.01985447
N       2.05767908     -1.42139145      0.03840376
H      -3.42123233     -0.52505944     -0.91627523
H      -3.48811257     -0.19502855      0.80279518
H      -2.63482500     -1.64904309      0.22354042
H      -0.45173549     -1.38675701      0.28325476
H       0.07024884      2.32784083      0.86507458
H       0.07699120      2.30438216     -0.88370721
H       1.62232148      2.38573589     -0.00528973
H       3.00653744     -1.64258547     -0.21920604
H       1.39655998     -1.96487118     -0.50394889
