13
b3lypvtz=-190491.61325787
C       2.36668139     -0.02087865     -0.00000423
C       0.86528538     -0.00232551     -0.00000321
C       0.14163740      1.19148568     -0.00002358
C      -1.23881780      1.10319249      0.00000522
N      -1.88222245     -0.06751795      0.00001391
C      -1.10411599     -1.14561190     -0.00003341
N       0.22860051     -1.17827657     -0.00000365
H       2.76165868      0.49316937      0.87882224
H       2.76166743      0.49305377     -0.87889523
H       2.72409453     -1.04748264      0.00006073
H       0.64014836      2.15159937     -0.00003153
H      -1.85555868      1.99561452      0.00002075
H      -1.60700476     -2.10664100      0.00009298
