10
b3lypvtz=-228069.6565057
N      -2.73762914     -1.26376782     -0.00011444
C      -2.16203237     -0.26425626     -0.00004360
C      -1.44992741      0.98617077      0.00004889
N      -0.17693434      1.11173548      0.00004406
C       0.65537116      0.00963902     -0.00005348
C       1.97040058      0.23786557     -0.00004771
F       2.84885827     -0.76144652     -0.00012926
H      -2.06215765      1.88147243      0.00012876
H       0.26877406     -1.00689700     -0.00012992
H       2.42021584      1.22111033      0.00003571
