17
b3lypvtz=-217676.52019557
C      -3.45634709     -0.06038775     -0.00991328
C      -2.08946006      0.58861394      0.00256310
O      -1.10256868     -0.44522230     -0.00252805
C       0.18888904     -0.02682138      0.08789753
C       1.21705041     -0.85466893     -0.06640419
C       2.65433435     -0.43769807      0.05917319
O       2.86083533      0.97069579      0.06132424
H      -3.58086321     -0.67841044     -0.89919130
H      -4.23454124      0.70411944     -0.00895652
H      -3.59046726     -0.69169948      0.86855287
H      -1.95385402      1.22778071     -0.87702641
H      -1.96129156      1.21132254      0.89486540
H       0.33482038      1.02417063      0.31599932
H       1.02488017     -1.90011644     -0.28148502
H       3.07616758     -0.78937375      1.00524613
H       3.24294521     -0.91500277     -0.73553676
H       2.56003266      1.31273723     -0.78717227
