14
b3lypvtz=-203638.45578032
C      -0.45383927      0.73978044     -0.88979915
C      -1.55305959      0.29568150      0.09062486
N      -1.47362918     -1.12873364      0.37376853
C      -0.53442661     -0.24304873      1.05625124
C       0.57436251      0.16931600      0.10738597
C       1.92616165     -0.36060021     -0.05810223
O       1.68778881      0.93370357      0.53128981
H      -0.50068434      0.31307241     -1.89366174
H      -0.34481792      1.82201160     -0.95830826
H      -2.48367214      0.80731121      0.28877428
H      -1.04152100     -1.66097154     -0.37664544
H      -0.50029435     -0.23317851      2.13652278
H       2.39977569     -0.33739457     -1.03451307
H       2.29765575     -1.11694954      0.62631243
