18
b3lypvtz=-181855.23485664
C       2.36493526      0.09998019      0.57873231
C       1.22356927     -0.77190716      0.04823227
C       0.09188750      0.06041045     -0.52166974
C      -1.35493374     -0.45264191     -0.73020595
C      -1.50553525     -0.32246066      0.79730975
N      -0.73304192      0.96377624      0.44135909
C      -1.72367695      1.04279141     -0.73536059
H       3.17871776     -0.51230598      0.96954745
H       2.01266430      0.75269779      1.37772875
H       2.77497449      0.73504437     -0.20945816
H       1.59405672     -1.41503940     -0.75662737
H       0.87913314     -1.44288249      0.83583822
H       0.47824005      0.66056561     -1.35082379
H      -1.71010652     -1.24942522     -1.39113171
H      -0.96753973     -1.00679428      1.44725280
H      -2.50230780     -0.12350069      1.19071873
H      -2.73125068      1.32276793     -0.42921514
H      -1.36978589      1.65892382     -1.56222693
