15
b3lypvtz=-214542.88744357
C      -2.00582881     -0.70459323     -0.59200611
C      -1.09386262     -0.16345294      0.49514679
C      -0.64831997      1.29508437      0.28043023
N       0.61266886      1.08459187     -0.40730412
C       1.15122977     -0.13550420     -0.04433137
N       2.35469976     -0.48277456     -0.20732135
O       0.15529146     -0.89785828      0.50679130
H      -2.97823278     -0.21000622     -0.55022013
H      -1.57234203     -0.53719823     -1.57866544
H      -2.15983746     -1.77486391     -0.45747076
H      -1.54591271     -0.30307344      1.47644084
H      -1.35766726      1.85056696     -0.33358918
H      -0.52884831      1.81820281      1.23596335
H       1.26989279      1.83841142     -0.51733758
H       2.49793832     -1.43963542      0.09912552
