15
b3lypvtz=-219530.11646463
C       2.68494851     -0.79153388      0.25808773
C       1.59067032     -0.07063266      0.04019193
F       1.70207577      1.28655792     -0.04540782
N       0.32972955     -0.60144027     -0.10821035
C      -0.67644995      0.15284371     -0.31823329
C      -2.05422841     -0.40130984     -0.47682181
C      -3.03333728      0.16838510      0.56022554
H       3.64806337     -0.31853803      0.36613087
H       2.59908199     -1.86334099      0.32603526
H      -0.57287135      1.23942062     -0.38104966
H      -2.41285812     -0.14347690     -1.47999517
H      -2.00552145     -1.48806522     -0.41349793
H      -3.07912201      1.25777189      0.50778489
H      -4.03899407     -0.21601158      0.38887690
H      -2.73378388     -0.10657785      1.57224190
