13
b3lypvtz=-242066.11721226
C       2.08253672      0.89552703     -0.19471460
C       1.17880851     -0.07340290     -0.00510317
N       1.49747040     -1.43806252      0.09307642
C      -0.26148389      0.22229209      0.02647047
O      -0.58151277      1.53177637      0.22770011
C      -1.19881628     -0.71493577     -0.13941749
F      -2.51019379     -0.34709594     -0.08690255
H       3.14187848      0.67700692     -0.19989282
H       1.77148703      1.91184491     -0.37112500
H       1.04618820     -1.90636903      0.86669198
H       2.49159693     -1.61104599      0.10213227
H      -1.53942195      1.62353033      0.15342506
H      -1.03804060     -1.75390452     -0.36354767
