14
b3lypvtz=-257892.17169322
C       2.44012143     -0.70020984      0.19013195
N       1.30922732     -0.06685195     -0.47418716
C       1.02463301      1.31857468     -0.13430296
C       0.14583469      0.22095527      0.34578445
C      -1.18134841     -0.04821333     -0.28937192
F      -2.14463375      0.75008988      0.26919974
F      -1.55970623     -1.34394376     -0.05763580
H       2.28291788     -1.77870103      0.21185020
H       2.58949943     -0.34743878      1.22041807
H       3.34719910     -0.49643687     -0.37950873
H       0.71363915      1.95612734     -0.95324846
H       1.64505165      1.80274598      0.61344338
H       0.18325121     -0.02490899      1.40365095
H      -1.17500451      0.11513241     -1.36811172
