14
b3lypvtz=-203689.45833219
C      -2.76179393     -0.89021665      0.00001926
C      -1.95277280     -0.00332546      0.00002821
C      -0.95112106      1.05168833      0.00004211
C       0.52899366      0.62104344      0.00003809
O       1.39718506      1.47520311      0.00006166
N       0.76164782     -0.71074889     -0.00000490
C       2.09749971     -1.27541560      0.00000343
H      -3.49105434     -1.66170591      0.00000759
H      -1.07915363      1.69639673      0.87232603
H      -1.07915125      1.69641737     -0.87222711
H      -0.03597813     -1.32537920      0.00000822
H       2.80743087     -0.45270961     -0.00013743
H       2.26331201     -1.88888542      0.88748663
H       2.26320899     -1.88911124     -0.88734079
