15
b3lypvtz=-212088.0363016733
C      -1.63001659      0.05709067      0.23285450
C      -0.25967267     -0.59585036      0.12040251
N       0.77386834      0.42503047     -0.10790546
C       2.05420661     -0.00326551     -0.51830578
N       2.82855788     -0.65347033      0.30412102
N       3.47651082     -1.19774830      1.06274442
N      -2.01149739      0.65982550     -1.04268195
H      -2.35996305     -0.71402519      0.48942387
H      -1.61360678      0.76663007      1.07705558
H      -0.25180752     -1.26692438     -0.73905661
H      -0.06496408     -1.19675095      1.01937661
H       0.80885274      1.08922599      0.65654771
H       2.43117194      0.13936594     -1.51863167
H      -2.88257673      1.16841693     -0.95735702
H      -1.29906354      1.32244944     -1.32594894
