13
b3lypvtz=-213760.59926899
C      -2.10633773     -0.60361920      0.00274673
C      -0.61817245     -0.45771080     -0.00728832
C       0.12710864      0.69092668      0.00262254
N      -0.21934265      2.01800433      0.07116684
O       1.43716788      0.41498768      0.00284729
N       1.60431082     -0.99503083     -0.00448646
C       0.38427432     -1.46013240     -0.00927284
H      -2.53958556     -0.38694101      0.98310757
H      -2.58687364      0.06245340     -0.71947883
H      -2.39550355     -1.62029544     -0.26295313
H      -1.13907003      2.23686483     -0.27675703
H       0.48993980      2.65641544     -0.25533564
H       0.24450115     -2.53157966     -0.01747972
