16
b3lypvtz=-204428.02248121
C      -1.62313829     -1.15368928     -0.11135042
C      -1.01587292      0.01886642     -0.06708295
C      -1.40070111      1.45051403     -0.34576110
O      -0.07732827      1.89531234      0.04965663
C       0.35793640      0.52799503      0.30870476
C       1.54057786      0.12444191     -0.57378368
N       2.00062292     -1.24977652     -0.40927864
H      -2.65174302     -1.24518789     -0.43761253
H      -1.12267698     -2.06546980      0.18795383
H      -2.18082688      1.86590568      0.29862608
H      -1.62344434      1.69986871     -1.38754395
H       0.61980977      0.39385279      1.36544009
H       1.27003757      0.27990956     -1.61973450
H       2.36761614      0.80506722     -0.35777300
H       2.26465349     -1.43941201      0.55026333
H       1.27447767     -1.90819819     -0.66293086
