15
b3lypvtz=-212084.90114511
C      -1.95607779     -0.79638563     -0.58385121
N      -1.75188082      0.39548327      0.23225936
C      -0.46534912      0.47246474      0.91679792
C       0.73947552      0.57703447     -0.01530010
N       1.19865655      1.63213779     -0.54401012
N       1.41806380     -0.63324492     -0.43923518
N       1.47393441     -1.50098429      0.44320395
H      -2.95247167     -0.75825090     -1.02384363
H      -1.90668393     -1.68092171      0.05375434
H      -1.22823565     -0.92849710     -1.39723454
H      -1.89806639      1.22891047     -0.32436661
H      -0.47040791      1.35656528      1.55690306
H      -0.35432278     -0.40363012      1.55469373
H       0.70358926      2.45372329     -0.19437018
H       1.98100752     -2.30163163      0.03975221
