14
b3lypvtz=-201270.90730814
C      -3.15908556     -0.32716686      0.02715213
C      -1.94930777      0.24664152     -0.02804189
C      -0.70645704     -0.47468546     -0.00614408
C       0.53378107      0.08036512     -0.01005440
N       0.85050047      1.41556734     -0.05147480
N       1.59530245     -0.85610723     -0.01448967
N       2.73104171     -0.33398950      0.02338011
H      -3.27102783     -1.40169739      0.10379803
H      -4.06564242      0.26055012     -0.00405180
H      -1.90125450      1.32826735     -0.11216842
H      -0.73092076     -1.55544926      0.01303401
H       0.20330296      2.06246246      0.36363547
H       1.82601374      1.59653482      0.13985851
H       3.41197348     -1.10106302      0.01706881
