17
b3lypvtz=-171060.20498975
C      -2.94560095      0.40320489     -0.00130544
C      -1.91533830     -0.21567006     -0.07453547
C      -0.72998129     -0.98867834     -0.18269379
C       0.50836065     -0.56866265      0.12795411
C       1.68653491     -1.48611968     -0.02644129
C       0.79166502      0.82093954      0.63494580
C       1.39880293      1.74439173     -0.43414304
H      -3.84990095      0.95428694      0.06486262
H      -0.86360633     -2.00060855     -0.55171573
H       2.44136886     -1.05497981     -0.68944037
H       1.39708937     -2.45607811     -0.42881418
H       2.17714258     -1.64685217      0.93839407
H      -0.12903452      1.26753460      1.00962276
H       1.48385242      0.75349615      1.48024131
H       1.59956869      2.73143855     -0.01516787
H       0.71252251      1.86642652     -1.27281686
H       2.33997140      1.35287345     -0.82266863
