12
b3lypvtz=-226231.08708051
O       3.26042878      1.10973585     -0.86409468
C       2.29168619      1.05712475     -0.14861837
C       1.01621319      0.41331300     -0.56761215
N       0.03722211      0.41263890      0.23454115
C      -1.19914640     -0.21341278     -0.16776697
C      -1.72385159     -1.13017106      0.92940649
O      -2.39251555     -2.10191102      0.70825861
H       2.27398682      1.48361817      0.87110930
H       0.99952515     -0.02916129     -1.56980829
H      -1.95408755      0.57817132     -0.26783402
H      -1.15322700     -0.76187414     -1.11482513
H      -1.45623416     -0.81807170      1.95714404
