19
b3lypvtz=-192737.48545933
C       2.41630318     -1.16296653     -0.08487147
C       1.00269615     -0.71728124     -0.32961138
C       0.52274015      0.49392565     -0.03086840
N       1.26658767      1.49279762      0.61291226
C      -0.90628768      0.91923092     -0.31114879
N      -1.81899024     -0.17803942     -0.58471215
C      -2.36059652     -0.81859533      0.60712128
H       2.59337010     -1.44785235      0.95825239
H       2.66330786     -2.03022618     -0.69758246
H       3.14929431     -0.38556724     -0.32791105
H       0.30885955     -1.41880051     -0.76931839
H       2.26716508      1.37549116      0.56495502
H       0.99935862      2.43729214      0.37656030
H      -0.90000653      1.58277069     -1.18311349
H      -1.24234859      1.53423060      0.54200601
H      -2.57063211      0.14308839     -1.17791581
H      -1.55484801     -1.29999968      1.16158205
H      -2.86821534     -0.12043603      1.29110459
H      -3.07202965     -1.59101666      0.31388950
