18
b3lypvtz=-202812.20658241
C       2.49433665     -0.43277651      0.38195275
N       1.32409787     -0.46832526     -0.49800617
C       0.21217399      0.31799315     -0.16273221
N       0.52262319      1.67306342     -0.00833390
C      -1.04434598     -0.15320124     -0.00182230
C      -1.43096567     -1.60455994      0.03011725
N      -2.09700664      0.82371953      0.14641081
H       2.83542505      0.59214354      0.50252127
H       2.29652968     -0.84000494      1.38199436
H       3.29807691     -1.00855337     -0.07659811
H       1.05564789     -1.41235513     -0.72330345
H      -0.32965636      2.21286729      0.07121176
H       1.11673621      2.01817768     -0.75102899
H      -2.03797507     -1.88851089     -0.83875635
H      -0.57552128     -2.28129601      0.06133134
H      -2.03803216     -1.82393411      0.91582165
H      -2.53635306      0.75973886      1.05974395
H      -2.83527622      0.67740395     -0.53546767
