13
b3lypvtz=-190468.30932559
C      -1.32831432     -0.04289969      0.20441524
C      -0.20356127     -0.89658710     -0.41068045
C       1.01932768      0.07199016     -0.41353632
N       0.48965665      1.43613485     -0.17075020
C      -0.73366753      1.33968044      0.14699049
C       2.01398406     -0.25985436      0.61267715
N       2.77925801     -0.55183425      1.42033971
H      -1.54915794     -0.31074640      1.24160514
H      -2.26924578     -0.10815506     -0.34379658
H      -0.00603779     -1.81016419      0.14342551
H      -0.44452557     -1.17150568     -1.43611673
H       1.53653683      0.06935124     -1.37450946
H      -1.30425303      2.23459002      0.37993650
