15
b3lypvtz=-193592.08617533
C       2.47546554     -0.13978854     -0.83666041
C       1.44213250      0.38159735     -0.18736645
C       0.02543624      0.22478664     -0.62326633
C      -0.98178416     -0.29925229      0.38811497
C      -1.08822425     -1.38969456      1.12259245
C      -1.74109135      0.99042067      0.21594523
O      -0.71028371      1.48888402     -0.67601783
H       2.34127452     -0.70205893     -1.75346520
H       3.48959606     -0.02734495     -0.47696409
H       1.59172850      0.94959895      0.72500679
H      -0.01988962     -0.28548790     -1.59171286
H      -0.34995870     -2.17947543      1.06384712
H      -1.91309220     -1.53385570      1.80903603
H      -1.85112442      1.61412479      1.10745886
H      -2.71018494      0.90754588     -0.28654827
