14
b3lypvtz=-203703.85649942
O       2.07231650      1.68257543      0.41933813
C       1.19917498      0.85329257      0.28902470
C      -0.27765910      1.17249909      0.28744612
C      -1.03955528      0.14610437     -0.55329407
C      -0.69446282     -1.27190615     -0.10436474
N       0.73446079     -1.56033807      0.00346685
C       1.55261728     -0.60207211      0.15487187
H      -0.61440097      1.12721302      1.33042772
H      -0.41947006      2.19870232     -0.05021921
H      -2.11654583      0.31041314     -0.48878897
H      -0.76433026      0.26170091     -1.60568332
H      -1.13088870     -1.48661708      0.87842972
H      -1.11918714     -2.01141654     -0.78490135
H       2.61793061     -0.82015092      0.22434653
