13
b3lypvtz=-213758.90813096
C       3.15170590     -0.71603783     -0.00001276
C       2.22303627      0.23623547     -0.00001084
N       0.85823720     -0.06005549     -0.00000151
C       0.03886497      0.89825972      0.00000768
O      -1.31225808      0.75290664     -0.00000957
C      -1.87516402     -0.51623107      0.00000825
N      -3.11399638     -0.69691417     -0.00000383
H       4.20190959     -0.46362283     -0.00000029
H       2.87467166     -1.76104687     -0.00002230
H       2.51155223      1.28831708     -0.00001263
H       0.29239071      1.95929179     -0.00002447
H      -1.15045253     -1.32003596      0.00007431
H      -3.62416653      0.18730053     -0.00004906
