15
b3lypvtz=-214551.09820423
N      -1.85090345     -0.28535148      0.64516288
C      -0.88113160     -0.15444421     -0.44906457
C       0.28960511     -1.13845760     -0.32284903
C       1.44483800     -0.31720636      0.29015803
N       1.09933445      1.04498393     -0.08558129
C      -0.20139585      1.22800264     -0.45461863
O      -0.73840575      2.29204667     -0.69034364
H      -2.54334573      0.45238864      0.56176759
H      -1.39457060     -0.14206912      1.54100891
H      -1.42546883     -0.28495642     -1.38333335
H       0.58294392     -1.49120815     -1.31114666
H       0.02562086     -2.00587033      0.27882744
H       2.41449254     -0.60680735     -0.11582051
H       1.49451097     -0.43073407      1.37834381
H       1.68407596      1.83968321      0.11748903
