15
b3lypvtz=-191228.11554254
N       2.94308730      0.12880659      0.77997700
C       1.79682703      0.05411685      0.71822320
C       0.33585222     -0.02920999      0.67280807
C      -0.34936318      1.26672696      0.16695189
C      -1.60726138      0.76060255     -0.58472170
C      -1.55660463     -0.77034934     -0.44969875
N      -0.12672999     -1.03829278     -0.28096199
H      -0.00405414     -0.23213623      1.70072799
H       0.31861136      1.80134021     -0.50429962
H      -0.58459996      1.92779046      0.99866261
H      -2.52793743      1.16896959     -0.17109168
H      -1.55908703      1.05053824     -1.63280418
H      -1.93858948     -1.28902727     -1.32824834
H      -2.15142755     -1.09216759      0.41847513
H       0.06939786     -1.98130725      0.03065436
