11
b3lypvtz=-213025.25459497
O       1.17457495      0.13628930     -0.61562549
C       2.13513637      0.02353624      0.10368501
C       2.77568527      1.10821838      0.84784560
N       2.44835231      2.38798872      0.88440536
C       3.34519395      2.97837879      1.71531100
C       4.24228493      2.05046785      2.20134398
N       3.87041527      0.86623594      1.64326800
H       4.31590678     -0.02477765      1.78743461
H       2.62352322     -0.96488745      0.25726229
H       3.31121374      4.03381190      1.92833513
H       5.07921321      2.13683799      2.87133452
