17
b3lypvtz=-194361.84774224
C      -2.25612445      0.71129130     -0.34395427
C      -1.24016098     -0.39393518     -0.38948549
O      -0.84231663     -0.96458098      0.87501137
C       0.12714411     -0.25788094      0.11630502
C       0.86980618      0.99433788      0.58291613
C       2.06375082      0.53928285     -0.30624786
C       1.41644211     -0.87082106     -0.42714385
H      -3.25026051      0.30836593     -0.14075080
H      -2.01605438      1.43270172      0.43634291
H      -2.29666322      1.23349776     -1.30293818
H      -1.40595066     -1.14400156     -1.16115125
H       0.41889407      1.96248492      0.36705747
H       1.09954428      0.94123069      1.64781625
H       3.05193214      0.58397000      0.14629476
H       2.09075464      1.06466204     -1.25970074
H       1.37927754     -1.33163281     -1.41385846
H       1.83979095     -1.58352057      0.28193697
