12
b3lypvtz=-254547.75773083
C       2.22804183     -0.19288018     -0.50023812
C       0.99965026      0.26313422     -0.27388184
F       0.85925383      1.63118183     -0.12326526
C      -0.23769543     -0.46089747     -0.15805966
C      -1.46209973      0.07035138      0.07554012
O      -2.59089177     -0.65359980      0.17550540
O      -1.76379792      1.35754299      0.24298503
H       2.39711723     -1.25081234     -0.62555905
H       3.06565616      0.48363932     -0.56115219
H      -0.16344616     -1.53308240     -0.27146069
H      -2.38534162     -1.58657700      0.05634653
H      -0.94634669      1.87179945      0.16923971
