15
b3lypvtz=-216908.79746969
C      -0.87318828     -1.29893149      0.32795281
C       0.46556134     -0.64498311      0.59179389
C       0.19684509      0.84752424      0.58847530
C       1.01491156      0.23559427     -0.49937639
O       2.37849139      0.56365519     -0.47066940
C      -1.28542456      0.99227070      0.32577804
O      -1.71110456     -0.26782003     -0.20273418
H      -1.28746307     -1.70349561      1.26073510
H      -0.84772340     -2.09922215     -0.41428935
H       1.15458576     -1.08400480      1.29957346
H       0.69269394      1.50627322      1.28680006
H       0.57529543      0.16036944     -1.49127807
H       2.87880270     -0.18429273     -0.81263182
H      -1.81295933      1.22649977      1.25928523
H      -1.53932399      1.75056308     -0.41688342
