15
b3lypvtz=-191232.27173231
C      -1.38903055     -1.47592003      0.30291580
C      -1.00556470     -0.05114394     -0.00261416
N      -1.72874003      0.80928322     -0.58279138
C       0.38866706      0.38963029      0.47633644
C       0.72964308      1.84928375      0.15087118
C       1.41545546     -0.51805787     -0.04603094
N       2.21999664     -1.22545627     -0.46631627
H      -2.40567043     -1.68394462     -0.02701362
H      -0.70911545     -2.17435270     -0.18835474
H      -1.32226223     -1.67155738      1.37611910
H      -2.63753573      0.41879614     -0.83226280
H       0.39642204      0.25714891      1.56515027
H       0.73426336      2.01217252     -0.92443706
H       1.70929669      2.10310381      0.55340682
H      -0.02077318      2.50535217      0.58523737
