12
b3lypvtz=-200547.79935124
C       2.51372416      0.28289805     -0.00000008
N       1.57794583     -0.57831391      0.00007384
C       0.26308717     -0.14318521      0.00006643
N      -0.23195916      1.07930330     -0.00020770
C      -1.58974839      0.92608747      0.00006112
C      -1.92832292     -0.40484866     -0.00010021
N      -0.73414343     -1.07478177      0.00004180
H      -0.58361616     -2.06928202      0.00003510
H       3.53995495     -0.07106741     -0.00014843
H       2.33153477      1.35790926     -0.00030463
H      -2.25395251      1.77425003      0.00026119
H      -2.87722930     -0.91013612     -0.00019345
