19
b3lypvtz=-195162.85161905
C       2.61673715     -0.56266513      0.43479856
C       1.36483783      0.02876756     -0.17988314
O       1.40856911      1.02340533     -0.86804419
C       0.06541009     -0.71108812      0.10172295
C      -1.21629952      0.04837811     -0.25294213
C      -1.45343813      1.22207697      0.70273746
C      -2.41860613     -0.90027976     -0.27023223
H       2.59316376     -0.41589241      1.51790936
H       2.66866134     -1.63945535      0.26179360
H       3.49865935     -0.07456813      0.02730467
H       0.05601731     -1.02376180      1.15203106
H       0.12380159     -1.64484484     -0.47202774
H      -1.08182927      0.45705200     -1.25712299
H      -2.35551609      1.77112461      0.42691808
H      -0.61939914      1.92307265      0.68441506
H      -1.58415911      0.86768801      1.72944971
H      -2.27719808     -1.71353492     -0.98527925
H      -3.33076465     -0.36856867     -0.54704831
H      -2.58397440     -1.34736511      0.71396244
