18
b3lypvtz=-181876.23443609
C       2.24991149      0.80873104      0.54241744
C       1.32875315     -0.11731792     -0.24185194
N       0.18759430      0.62797326     -0.76193995
C      -1.01656917      0.87265924     -0.00029585
C      -1.44727573     -0.32511594      0.86529767
C      -1.45676468     -1.21596940     -0.41276663
C      -1.02389363      0.00812681     -1.24011449
H       3.13393797      0.27085843      0.88900887
H       2.57203867      1.64515668     -0.07822929
H       1.74011874      1.21624050      1.41755167
H       1.04343331     -0.96847468      0.38802922
H       1.85848396     -0.52741969     -1.10495312
H      -1.34348577      1.89577578      0.13177253
H      -2.44565840     -0.19268146      1.27853714
H      -0.77321793     -0.60980866      1.67482949
H      -0.78925141     -2.07855820     -0.43356068
H      -2.46070144     -1.54940379     -0.67001110
H      -1.35755345      0.23922802     -2.24362097
