18
b3lypvtz=-205227.11443706
C      -2.70412121      0.75026470      0.55195912
C      -2.21589348     -0.27994210     -0.46447429
C      -0.80622395     -0.79075903     -0.17604297
N       0.16970071      0.28743063     -0.30300595
C       1.37621932      0.06411384     -0.02567306
C       2.44068521      1.11573593     -0.13741947
O       1.80462714     -1.17215632      0.39989142
H      -3.70100316      1.11629654      0.30041633
H      -2.02757037      1.60464413      0.58648971
H      -2.75186758      0.31995367      1.55570803
H      -2.89752820     -1.13532929     -0.48451339
H      -2.22780093      0.15675643     -1.46659826
H      -0.76539314     -1.22834441      0.82865927
H      -0.55479180     -1.60002254     -0.87031568
H       1.99875111      2.04567946     -0.48133970
H       2.91992743      1.28589449      0.83065050
H       3.21685945      0.80776967     -0.84336400
H       2.75162145     -1.15169479      0.57114739
