13
b3lypvtz=-211346.9453226
C      -3.11342667      0.18424079      0.00199581
N      -2.07254153     -0.54393025     -0.01523127
N      -0.89352884      0.21930189      0.02504001
C       0.15355813     -0.49926914     -0.03408622
C       1.50306615      0.13326255     -0.00587407
N       1.73075202      1.38664517     -0.00368154
N       2.53693832     -0.78088901     -0.03914839
H      -4.07740375     -0.31019170     -0.02593648
H      -3.06382706      1.27147815      0.04256178
H       0.07588497     -1.58533764     -0.10947641
H       0.84931783      1.89287552     -0.04541729
H       2.37575622     -1.69477979      0.34939116
H       3.44857922     -0.39224453      0.14369189
