17
b3lypvtz=-217684.87047041
C      -1.59900380      1.20993198     -0.50768979
C      -1.35368246     -0.00992546     -0.01254474
O      -2.20306818     -1.06419224     -0.10296829
O      -0.27423405     -0.43914123      0.65810663
C       0.80228393      0.47292344      0.91602799
C       1.78469552      0.57079376     -0.24470516
C       2.47043031     -0.75583161     -0.57000620
H      -2.53618571      1.41094686     -1.00420876
H      -0.89097806      2.01607238     -0.43325669
H      -2.98035904     -0.78677424     -0.59785673
H       1.29684972      0.05876981      1.79521412
H       0.39660273      1.45023477      1.18455910
H       1.26706829      0.95140348     -1.12713437
H       2.53214048      1.32280117      0.02640230
H       1.73921899     -1.52000698     -0.83359293
H       3.15851615     -0.64432301     -1.40882008
H       3.04315919     -1.12366588      0.28440461
