14
b3lypvtz=-203661.01677904
C       2.78465949      0.09089956      0.89192168
C       1.74170165      0.51599699      0.47958098
C       0.47515254      1.01335783     -0.04014571
C      -0.40555834     -0.08175821     -0.68925127
O      -1.50394499      0.49366869     -1.37422327
C      -0.83786225     -1.13612620      0.31450091
N      -2.00411482     -1.60310404      0.45212458
H       3.70915299     -0.27830670      1.26033614
H       0.66241104      1.77438704     -0.80071206
H      -0.08849073      1.49764003      0.76473377
H       0.19033568     -0.57595731     -1.46151585
H      -2.04453338      0.98233386     -0.74220417
H      -0.04638005     -1.51177233      0.96462230
H      -2.63252883     -1.18135921     -0.23846802
