11
b3lypvtz=-210564.31303438
C      -1.61871721     -0.13896582      0.01193339
C      -0.12463429     -0.17858160      0.02456410
C       0.67496214      0.95635177     -0.13271092
N       1.98831261      0.86983498     -0.11364058
N       2.54092867     -0.33345732      0.06009018
N       1.80571042     -1.40104008      0.20767725
N       0.47444343     -1.34950911      0.19353218
H      -1.98624197      0.26436047     -0.93378061
H      -2.01521964     -1.14184347      0.14971743
H      -1.99446485      0.50668613      0.80828266
H       0.25492071      1.94616406     -0.27566511
