17
b3lypvtz=-217672.48102376
C      -0.33350208      1.71737997      0.19425711
C       0.03345743      0.26917403     -0.05549863
C      -1.12615810     -0.53111832     -0.63469091
O      -2.18067950     -0.55302088      0.32451922
C       0.81614863     -0.45777008      1.06340930
C       1.93837415     -0.58456737      0.02246772
O       1.17326677      0.15174067     -0.96271497
H      -0.61246293      2.19966830     -0.74484790
H      -1.17890935      1.78094735      0.87988781
H       0.51198661      2.25935370      0.61826652
H      -1.44453333     -0.06029231     -1.57244431
H      -0.77708066     -1.54364619     -0.86483388
H      -2.91827853     -1.05134407     -0.03685085
H       0.37002631     -1.38759147      1.40846622
H       1.05360539      0.16500595      1.92308186
H       2.87644639     -0.07901937      0.26130679
H       2.15841579     -1.60039392     -0.31526212
