14
b3lypvtz=-224611.75079081
N       2.65664708     -0.59694504     -0.38798858
C       1.60100239     -0.00703031     -0.02707637
O       1.45113309      1.33602339      0.04317202
C       0.37710700     -0.79526955      0.41591603
N      -0.80657613      0.04440989      0.37949325
C      -1.87240293     -0.42193635     -0.12861655
N      -3.01665255      0.30598097     -0.26396558
H       3.38705901      0.07616102     -0.61647923
H       0.51227518      1.49155245      0.26273819
H       0.55987770     -1.11306120      1.44788562
H       0.30470947     -1.69837659     -0.19669191
H      -1.94620826     -1.43892452     -0.52716825
H      -3.88163430     -0.17468381     -0.43147263
H      -3.07131074      1.18714365      0.22028097
