17
b3lypvtz=-191978.64064337
C      -1.68600694      1.34775178     -0.00806467
C      -1.25491000     -0.10441256      0.00906056
N      -2.29919928     -1.01552445     -0.07336085
N      -0.06106644     -0.54540483      0.03242798
C       1.05431143      0.33234898      0.00429379
C       2.27626580     -0.13177178     -0.75368632
C       2.29199428     -0.10816033      0.74886543
H      -1.33372139      1.84048018     -0.91538965
H      -1.27001186      1.88700343      0.84324708
H      -2.77032757      1.44264117      0.01921676
H      -3.16792182     -0.75196862      0.36181909
H      -2.01891206     -1.96832240      0.10462172
H       0.87136603      1.40307196     -0.01215157
H       2.85556169      0.60721126     -1.29027206
H       2.19746947     -1.09455317     -1.23742657
H       2.22439584     -1.05568737      1.26366206
H       2.88308883      0.64652076      1.24950221
