15
b3lypvtz=-191204.19087161
C      -2.48083367     -0.30633532      0.03744679
N      -1.39006716     -0.92909409     -0.15568372
C      -0.15381265     -0.28326369      0.01939538
C       0.95637116     -1.03260683     -0.10259891
C       2.37606417     -0.62496432      0.11520343
N      -0.17224478      1.06751303      0.42292066
C       0.40618493      1.94848264     -0.27387224
H      -2.54301783      0.73495596      0.35525204
H      -3.41126643     -0.84712709     -0.11267591
H       0.76935829     -2.07533860     -0.32788798
H       2.47002864      0.38309325      0.51557286
H       2.94878163     -0.67045366     -0.81617360
H       2.86470215     -1.31394032      0.80937651
H       0.91786979      1.73059222     -1.21639171
H       0.39900478      2.98247882      0.06530539
