15
b3lypvtz=-191197.57331985
C       2.80894508     -0.22096308     -0.10776619
C       1.57294666     -0.65074949      0.12628689
C       0.35366924      0.18602409      0.01362370
N       0.28885382      1.44702225      0.19303338
C      -0.90160095     -0.54567996     -0.32924650
C      -2.04702799     -0.46490081      0.62966867
N      -2.09960830      0.22326267     -0.65508412
H       3.00942883      0.79721082     -0.41952345
H       3.66253499     -0.87783199     -0.01192907
H       1.41029386     -1.69213192      0.38571554
H       1.18608552      1.83376993      0.48097313
H      -0.77158896     -1.45974920     -0.89729368
H      -1.88985661      0.12363544      1.52558541
H      -2.71181184     -1.31373307      0.73312308
H      -1.86562632      1.20525631     -0.51768478
