16
b3lypvtz=-181120.96174918
C       3.55536764     -0.19443768     -0.09901247
C       2.38335742      0.07338097     -0.05756225
C       1.00920666      0.43057655     -0.01907717
C       0.02641011     -0.41753394      0.29624770
C      -1.44225044     -0.10330991      0.38351065
C      -1.82862985      1.28924998     -0.10113578
N      -2.17682207     -1.10616879     -0.41135971
H       4.58710617     -0.43975675     -0.13533300
H       0.78230503      1.46178845     -0.26562795
H       0.29165027     -1.44360954      0.53509593
H      -1.70282580     -0.16762469      1.45428395
H      -1.34247492      2.06745735      0.48798429
H      -1.56468506      1.41655937     -1.15131548
H      -2.90660573      1.43137715     -0.00539365
H      -3.17363165     -1.00747891     -0.25333012
H      -1.92874180     -2.04468061     -0.11831193
