14
b3lypvtz=-201306.58518131
C      -2.53118524      0.34547847     -0.06407448
N      -1.48519881     -0.66702204     -0.00788783
C      -0.17464127     -0.19222465      0.03448745
C       0.37926977      1.06391424      0.05878206
N       1.75749446      0.98042036      0.01166615
C       2.03616304     -0.29238309     -0.03395197
N       0.89642361     -1.05705186     -0.02469517
H       0.83594825     -2.05351954     -0.14237114
H      -2.52594407      1.03188803      0.79208465
H      -2.41106746      0.93602508     -0.97252619
H      -3.49990717     -0.14995566     -0.10668907
H      -1.66926489     -1.35320271      0.71239864
H      -0.12595721      2.01274838      0.10233558
H       3.02052100     -0.73001800     -0.06135668
