14
b3lypvtz=-227009.69677573
C      -2.77995905     -0.22082055      0.06047648
C      -1.33757401      0.20868405     -0.01736522
O      -0.95627529      1.35019597     -0.07707118
O      -0.53232165     -0.87660429     -0.00171354
C       0.86058235     -0.82162168     -0.06383143
C       1.65796691      0.24282940      0.05195916
N       3.05025952      0.15870287      0.10706234
H      -3.00518988     -0.94066763     -0.72614331
H      -2.96862681     -0.71196309      1.01602000
H      -3.41977826      0.65120041     -0.03455442
H       1.24365272     -1.82553300     -0.18093580
H       1.25070933      1.23324434      0.16596161
H       3.44171712     -0.72091130     -0.19717718
H       3.52499799      0.93512049     -0.32728251
