15
b3lypvtz=-214516.84489051
C      -1.60953963     -0.51244222      0.08527488
C      -2.85675297      0.31899158      0.20768854
O      -2.90586884      1.50310087     -0.00748166
N      -0.52835961      0.21463363     -0.52943796
C       0.77512612     -0.29212702     -0.37231189
C       1.83908742      0.42110044      0.00775978
N       3.15238840     -0.06527624      0.15704314
H      -1.39161761     -0.86655129      1.11118040
H      -1.86251688     -1.41659453     -0.48451384
H      -3.75266080     -0.23900055      0.54630929
H      -0.61355928      1.20745871     -0.35669918
H       0.88356432     -1.33974291     -0.63802203
H       1.72184952      1.46330500      0.28399070
H       3.29397607     -0.97251816     -0.26507505
H       3.85488375      0.57566268     -0.18477878
