17
b3lypvtz=-217668.83313549
C      -2.43892144      0.30346586     -0.03515389
O      -1.46812110     -0.68064822      0.25890382
C      -0.21021061     -0.42933488     -0.31675620
C       0.84076584     -1.52932089     -0.09229256
C       1.90624690     -0.41182719      0.05935496
C       0.76485990      0.57642243      0.35620211
O       0.94122639      1.86609132     -0.19721356
H      -2.56732792      0.42912733     -1.11713524
H      -3.38022198     -0.03000867      0.39795447
H      -2.18294288      1.27853178      0.39758126
H      -0.31092832     -0.17614839     -1.38060181
H       0.65087192     -2.04511812      0.84835584
H       0.97549938     -2.26370199     -0.88283870
H       2.37535075     -0.16308447     -0.89224011
H       2.67719847     -0.53361783      0.81676250
H       0.55329768      0.62377040      1.43002481
H       0.28664602      2.46352352      0.17567531
