15
b3lypvtz=-214524.98612313
N      -3.56346611     -0.17461777      0.09069527
C      -2.30566426      0.34490984      0.13407894
N      -1.26732447     -0.34942045     -0.12699490
C      -0.03501602      0.28848143     -0.10793515
C       1.11561958     -0.34128196     -0.35640345
C       2.44022070      0.33811492     -0.36207840
O       3.27934418     -0.25839593      0.63718445
H      -3.64410963     -1.17621060      0.02204415
H      -4.31031756      0.31371299      0.55045299
H      -2.27098332      1.41314064      0.37669688
H      -0.02096454      1.35862438      0.12177925
H       1.10010435     -1.40382047     -0.56880366
H       2.31242456      1.41113349     -0.17339557
H       2.90939351      0.22928414     -1.34911746
H       4.18385203      0.02797634      0.47956566
