15
b3lypvtz=-216901.577923
C       1.66877659     -0.82835837      0.94200223
C       1.17880986     -0.02335568      0.00439970
O       1.99471586      0.93726136     -0.54732742
C      -0.21337618     -0.03289645     -0.53767817
C      -1.15371026      1.15064809     -0.17815388
O      -2.20553949      0.23911210      0.19922465
C      -1.31566519     -0.89734662      0.09928724
H       2.69779621     -0.73942817      1.25818046
H       1.05547162     -1.58404438      1.40385715
H       1.53448248      1.38937580     -1.26055177
H      -0.17009062     -0.18250321     -1.62053499
H      -0.80766910      1.74902408      0.66954337
H      -1.46017989      1.80954946     -0.99322885
H      -1.06996893     -1.29801904      1.08470401
H      -1.73375295     -1.68901897     -0.52372373
