15
b3lypvtz=-191197.0948878
C       2.07431734     -0.14917839      0.41217757
N       0.63739999      0.01048623      0.60369412
C      -0.19966896     -0.64317700     -0.39960304
C      -1.62391762     -0.88404685      0.07255376
N      -2.21070768      0.44564780      0.34523300
C      -1.35770622      1.34206285      0.05535717
C      -0.03517103      0.83909302     -0.42100062
H       2.37684518     -0.19312307     -0.64410158
H       2.59424148      0.68443607      0.88547306
H       2.39381268     -1.07147581      0.89936690
H       0.27261680     -1.28036920     -1.13764647
H      -1.66213623     -1.48037211      0.98600388
H      -2.23400439     -1.38875723     -0.68053215
H      -1.59646454      2.39568582      0.16508346
H       0.57044320      1.37308787     -1.14225905
