17
b3lypvtz=-217678.45070336
C       3.06704213      0.32664430     -0.44656326
C       2.05259145     -0.17603269      0.24506215
O       0.75311347      0.08680921     -0.05948043
C      -0.21529838     -0.27954770      0.92728857
C      -1.59407278     -0.19082236      0.28671941
C      -1.97842203      1.23074687     -0.11568930
O      -1.68565632     -1.09404359     -0.81116204
H       2.90914148      0.99754849     -1.27937767
H       4.07832811      0.05481405     -0.18558003
H       2.20235872     -0.84819694      1.08560101
H      -0.14343019      0.39202858      1.78942063
H      -0.03052816     -1.30593737      1.25755273
H      -2.31247542     -0.56197611      1.02193588
H      -2.95714340      1.22304104     -0.59429060
H      -1.25238058      1.64808979     -0.81417092
H      -2.02575152      1.88490040      0.75783823
H      -0.95268159     -0.89765797     -1.40615736
