15
b3lypvtz=-237845.99930869
C      -2.20389767     -0.96482655      0.22596526
C      -1.10276372      0.07461939      0.26980244
O      -1.40870867      1.22821200     -0.47147315
O       0.07945508     -0.56569018     -0.20834521
C       1.29161685      0.04075060      0.04534398
N       1.52214299      1.21657225      0.45499003
N       2.29656232     -0.84567940     -0.26430944
H      -1.95636939     -1.81511346      0.86034613
H      -2.33857267     -1.32700031     -0.79506716
H      -3.13722706     -0.52236433      0.57059938
H      -0.92607753      0.43248767      1.28565970
H      -1.58173368      0.97036554     -1.38493803
H       0.68892715      1.79164945      0.47741277
H       2.08528495     -1.82134651     -0.13856279
H       3.20656405     -0.55179615      0.04834508
