16
b3lypvtz=-204443.45790278
C      -0.75994061      1.93456556     -0.03472490
C      -0.68917774      0.60480910      0.10607646
N       0.48332735     -0.10734366      0.38905171
C       1.54156694      0.13128175     -0.26814633
C       2.84427015     -0.51879731      0.05509879
O      -1.83306322     -0.13159026      0.10757549
C      -1.74058558     -1.53263634     -0.14237715
H      -1.71465878      2.41470099     -0.18379647
H       0.11942243      2.54644161      0.08282903
H       1.53191988      0.84051301     -1.10475875
H       3.23901650     -1.04095839     -0.82069434
H       2.73368033     -1.21919089      0.88003856
H       3.58505995      0.23997485      0.32382861
H      -1.33865189     -1.73313625     -1.13901745
H      -2.76018136     -1.90616433     -0.08668663
H      -1.12120433     -2.03192644      0.60197838
