18
b3lypvtz=-181907.39492504
C       2.82076881     -0.42859522     -0.00002589
C       1.55114775      0.00698712      0.00000036
C       1.23038239      1.47291037      0.00002497
N       0.50016581     -0.90884846      0.00001314
C      -0.88475956     -0.78242991      0.00001489
C      -1.70007278      0.27847856     -0.00002396
C      -3.19398163      0.13533964     -0.00000663
H       3.64173089      0.27011256     -0.00002744
H       3.06476352     -1.48355754     -0.00004495
H       0.65194135      1.75535582     -0.88093983
H       0.65191601      1.75532001      0.88098450
H       2.15492834      2.04521871      0.00004807
H       0.81127861     -1.86493391      0.00001658
H      -1.34842247     -1.76367212      0.00005572
H      -1.31725930      1.28723565     -0.00006971
H      -3.64599369      0.60883849     -0.87716716
H      -3.49587873     -0.91363198      0.00003227
H      -3.64598033      0.60889920      0.87712809
