16
b3lypvtz=-204459.2149355
C      -1.64909370     -0.72877860      0.18733645
C      -0.41516091      0.06364162     -0.20573123
C       0.84206986     -0.78954229     -0.50251221
C       1.94346289      0.09658877      0.02111209
N       1.58167838      1.06439383      0.75989193
C       0.11687906      1.01753795      0.89467794
O      -0.79122988      0.81071400     -1.37227735
H      -2.47133254     -0.05279345      0.42455860
H      -1.45019000     -1.35428987      1.05775808
H      -1.96721430     -1.36810601     -0.63677529
H       0.83558785     -1.73919497      0.04220660
H       0.92898793     -1.02549545     -1.56413285
H       2.99622293     -0.07121921     -0.19204645
H      -0.31103805      2.01622024      0.79494289
H      -0.12231403      0.65967524      1.90016139
H      -0.06731545      1.40064820     -1.60917061
