15
b3lypvtz=-214537.75695121
C      -0.77612763      1.96392922      0.19963942
C      -0.00527564      0.67598818      0.07302037
C       1.33678199      0.71157702     -0.05609904
O       2.18380903     -0.31369043     -0.25873155
C      -0.77124184     -0.58333090     -0.00657768
N      -1.98258260     -0.72572524     -0.37967535
N      -0.04314738     -1.75773368      0.31626401
H      -1.44847084      1.94843851      1.06041501
H      -0.09939403      2.80980693      0.31679212
H      -1.38906752      2.16262665     -0.68447535
H       1.86316790      1.65839025     -0.02882144
H       1.65190506     -1.13416176     -0.31469494
H      -2.38767831      0.16012196     -0.66834145
H      -0.64448199     -2.56805154      0.22966696
H       0.36835178     -1.72021616      1.24174890
