17
b3lypvtz=-217673.20372015
C      -2.17056021     -1.02524156     -0.06996915
C      -0.90963742     -0.24720446     -0.39607969
C      -0.94578210      1.28915966     -0.31236467
O       0.22597783      1.31416208      0.54220850
C       0.18686526     -0.13443106      0.68614740
C       1.55210560     -0.73751078      0.43033359
O       2.09475831     -0.33403766     -0.81554907
H      -1.96426757     -2.09464916      0.01143048
H      -2.92514459     -0.89755812     -0.84896958
H      -2.60731307     -0.69516478      0.87532393
H      -0.47891235     -0.58177628     -1.33940974
H      -0.78555128      1.84707793     -1.23673371
H      -1.82135883      1.69082613      0.20755265
H      -0.16192815     -0.41694508      1.68736111
H       1.47589750     -1.82700745      0.40997532
H       2.22173703     -0.46430726      1.25614162
H       2.06202804      0.63029284     -0.82480700
