15
b3lypvtz=-214511.31328155
C       2.37239749     -0.43381417     -0.07088149
N       1.32190714      0.56918494     -0.17337465
C       0.12927970      0.17081580     -0.24441094
C      -1.18290724      0.94792426     -0.22087978
C      -1.85494369     -0.43401258      0.01772128
N      -0.53789041     -1.04730753     -0.26353299
O      -1.31621034      1.87113568      0.83284335
H       3.32986286      0.05852371      0.09243616
H       2.45334356     -1.02853815     -0.98800192
H       2.20751906     -1.12994508      0.76239415
H      -1.44909975      1.39660823     -1.18211555
H      -2.18920314     -0.53834528      1.05025359
H      -2.64202291     -0.73200357     -0.67390057
H      -0.19697088     -1.93064586      0.08445815
H      -0.44506144      2.26041961      0.97699121
