13
b3lypvtz=-213778.27008638
C      -2.51496220      0.35422378      0.07276622
N      -1.42810902     -0.59102445     -0.12584030
C      -0.14294757     -0.15502267     -0.03484207
N       0.29357771      1.06688702     -0.02933099
C       1.67885282      0.92282214      0.01175646
C       2.00498547     -0.38076783      0.03920293
O       0.82185507     -1.10700565      0.00971233
H      -3.45451298     -0.14010731     -0.16637408
H      -2.38220643      1.19905485     -0.59967252
H      -2.56070942      0.74056348      1.09573171
H      -1.57516117     -1.53467048      0.19168406
H       2.33316635      1.77747756      0.02319783
H       2.91546937     -0.94699343      0.08109243
