14
b3lypvtz=-203675.98117944
C      -2.34214990     -0.57763943      0.02549732
N      -1.28435551     -0.33283962     -0.61858016
C      -0.28426556      0.47406316     -0.04312448
C      -0.50588244      1.73211428      0.35134283
C       1.05882585     -0.15569767      0.00623413
C       2.19211435      0.45912331     -0.33516870
O       0.98479203     -1.44943965      0.44204423
H      -2.50688732     -0.23712039      1.05259247
H      -3.13038664     -1.15607367     -0.45012979
H       0.29298374      2.33556495      0.75448806
H      -1.47916475      2.18733882      0.23374432
H       3.15135587     -0.03645591     -0.25175473
H       2.17722334      1.46505717     -0.72090340
H       1.85689095     -1.85404533      0.38054691
