16
b3lypvtz=-227756.98393395
C      -0.79476593     -0.48888536     -0.71459511
C      -2.27671033     -0.22502468     -0.63590732
O      -3.12082059     -1.05094488     -0.88434526
C      -0.02521202      0.01952460      0.51840983
C       1.42267862     -0.47695771      0.49929585
O       2.06374675      0.09160415     -0.64052447
N      -0.14571783      1.47773969      0.60189358
H      -0.40321831      0.02654879     -1.59823257
H      -0.64481671     -1.55859926     -0.86406438
H      -2.55477206      0.79985244     -0.32735594
H      -0.49077486     -0.40025236      1.41545405
H       1.44387376     -1.57248471      0.45721922
H       1.92094612     -0.15938531      1.42349982
H       2.97975972     -0.19602088     -0.66494439
H       0.16567609      1.81107623      1.50669963
H       0.46012758      1.90220926     -0.09250254
