14
b3lypvtz=-203681.91923884
C      -3.16489717     -0.74105597     -0.00000613
C      -2.24057280      0.21636077     -0.00000746
N      -0.87434409     -0.06560127      0.00000058
C      -0.06566948      0.90528259      0.00000555
O       1.27756595      0.78275437     -0.00000451
C       1.84883695     -0.47622587      0.00000387
C       3.16538602     -0.60052886     -0.00000335
H      -4.21637596     -0.49390688     -0.00000532
H      -2.88272401     -1.78476575     -0.00000280
H      -2.53957681      1.26601972     -0.00001223
H      -0.33716456      1.96174406     -0.00002436
H       1.14262124     -1.29214152      0.00001696
H       3.60719179     -1.58504496      0.00000754
H       3.81850694      0.26063958     -0.00001934
