15
b3lypvtz=-191216.14512789
C       3.58439996      0.20980076     -0.00002000
C       2.23000031     -0.41217525      0.00000414
C       1.07628291      0.26393337      0.00000379
N      -0.14037014     -0.40316910      0.00002428
C      -1.22252853      0.27473219      0.00001547
C      -2.52514688     -0.39561628      0.00004822
N      -3.66225344      0.17556774     -0.00001283
H       4.15874201     -0.10675271      0.87539234
H       3.53342851      1.29868857     -0.00003606
H       4.15872088     -0.10677949     -0.87543656
H       2.16927469     -1.49523710      0.00002154
H       1.07005064      1.35656295     -0.00002086
H      -1.23087653      1.37411857      0.00003379
H      -2.48430125     -1.48461441      0.00001613
H      -3.55698813      1.19405621     -0.00002440
