13
b3lypvtz=-192839.34338699
C       1.08462592      0.27971267     -0.57909549
C       0.24336301     -1.00534906     -0.30628274
C      -1.15768758     -0.50829203     -0.60128897
C      -1.19433189      0.72685185     -0.07333695
C       0.18606072      0.92686161      0.51966281
C       0.30118884     -0.50231228      1.19609566
O       0.43959125     -0.96084359      2.27859057
H       0.97787022      0.70340080     -1.57739349
H       2.13193658      0.18623190     -0.28791357
H       0.54858401     -1.99820907     -0.61730910
H      -1.96094638     -1.09240526     -1.02115603
H      -2.03471647      1.39271839      0.04108587
H       0.43446175      1.85163409      1.02834143
