16
b3lypvtz=-202047.26506638
C       3.28555192      0.26341245      0.45824828
N       2.18381482      0.11470497     -0.48365948
C       0.98990792     -0.41486047     -0.01422309
C      -0.23801950     -0.05327425     -0.40476317
N      -1.39354666     -0.79279790     -0.08558077
C      -2.62116397     -0.22653826      0.16318016
N      -2.92583748      1.00158730      0.30038237
H       3.47837677     -0.69659930      0.93937732
H       4.18650755      0.55058919     -0.08236656
H       3.09736797      1.00450077      1.24515648
H       2.05948797      0.91770896     -1.08384600
H       1.11371952     -1.24129577      0.67910743
H      -0.39370329      0.80238487     -1.05484342
H      -1.35734830     -1.79490189     -0.15804377
H      -3.41251712     -0.97204235      0.23912046
H      -2.10372012      1.60234766      0.24643175
