15
b3lypvtz=-191219.56415091
C      -1.06635671      1.82575927     -0.07064970
C      -0.20446679      0.80725777      0.02319391
C       1.30815854      0.89596421      0.09734954
N       1.77465255     -0.48392834     -0.16526662
C       0.64145191     -1.30905936     -0.02482091
C      -0.51474915     -0.61730111      0.03538680
N      -1.83122668     -1.09390563     -0.04249345
H      -0.73360348      2.85489365     -0.08450671
H      -2.12983950      1.65352335     -0.16391916
H       1.71904713      1.59290457     -0.63326623
H       1.62350068      1.22568162      1.09282500
H       2.55890126     -0.76372254      0.40803092
H       0.76411733     -2.38220872     -0.05704014
H      -1.90330093     -2.09163499      0.09635755
H      -2.45117516     -0.61719374      0.59949022
