13
b3lypvtz=-213771.96751928
C      -1.51302701     -0.21133752      0.39153120
C      -0.04372960     -0.38115811      0.08427524
C       0.80813502      0.66501051     -0.01953832
N       2.12575124      0.59919638     -0.34894172
C       0.43713611     -1.69986030     -0.10297558
N       0.86015410     -2.76570959     -0.25729240
O      -1.77330761      1.16003269      0.66178373
H      -1.77888308     -0.83610648      1.25329906
H      -2.11225683     -0.55940590     -0.45955008
H       0.41660377      1.65904360      0.14263002
H       2.71250806      1.39006546     -0.15777849
H       2.58324351     -0.29763949     -0.37898412
H      -2.72232767      1.27786874      0.75107541
