14
b3lypvtz=-203690.24315829
C      -1.53234430     -0.68629385      0.32558734
C      -0.38345918      0.17899067     -0.12729722
O      -0.57738796      0.82632813     -1.35037493
C       0.41584818      0.97021811      0.84199297
C       1.04661874     -0.26686352      0.20616792
C       2.07407054     -0.13079069     -0.78011311
N       2.89010741     -0.05021876     -1.58972717
H      -1.71375455     -1.49449184     -0.38669140
H      -1.33572135     -1.13355230      1.30033185
H      -2.43970345     -0.08487222      0.39686922
H      -0.55531813      0.17752640     -2.06345888
H       0.18130181      0.90855177      1.89510798
H       0.77877152      1.92703207      0.49698053
H       1.15077071     -1.14166397      0.83462491
