10
b3lypvtz=-223083.56012669
O       1.08559088     -0.04881699      0.10083659
C       2.29169525     -0.05949366     -0.01968553
C       3.07762591      1.19168559     -0.09107709
N       4.35883356      1.24627853     -0.21887702
N       4.97961467      0.04804847     -0.28818616
H       5.98034835      0.09089339     -0.38776792
C       4.31456070     -1.13025692     -0.22799190
N       3.03922924     -1.24656864     -0.10089748
H       2.55225943      2.13642408     -0.03265635
H       4.94374202     -2.01469387     -0.29579714
