11
b3lypvtz=-236319.53925295
N      -2.36444746     -0.06545830     -0.26509763
C      -1.23784704      0.50797696     -0.32415494
C       0.08548675     -0.09629207      0.04521208
N       0.30437279     -1.26644181      0.48113405
C       1.30876090      0.79854199     -0.12190069
O       1.23008780      1.92738609     -0.52541671
O       2.45788500      0.21419560      0.21867705
H      -2.29691422     -1.03056936      0.07401303
H      -1.18849532      1.53581163     -0.67147486
H      -0.54079294     -1.83294177      0.57900363
H       2.24200373     -0.69220897      0.50990500
