18
b3lypvtz=-181900.88863071
C      -0.08528540      2.05661624     -0.44219480
C      -0.80022197      1.16885286      0.25449082
C      -0.88932578     -0.27645640      0.03372747
C      -2.28990264     -0.83955514      0.14887185
C       0.11844215     -1.11735773     -0.28696506
N       1.48644128     -0.91629948     -0.34364594
C       2.20310787      0.01816673      0.50523053
H      -0.13267102      3.11327389     -0.21425805
H       0.54099831      1.76212669     -1.27418287
H      -1.46608685      1.55628468      1.02396087
H      -2.70017423     -0.67534762      1.15063241
H      -2.30946716     -1.91306752     -0.04038725
H      -2.97708069     -0.35974543     -0.55426742
H      -0.15489554     -2.13521790     -0.54586760
H       1.99288695     -1.76683828     -0.51248911
H       2.14107245      1.04228322      0.13477579
H       1.81216296      0.02053563      1.52816423
H       3.25181332     -0.27453946      0.53116814
