14
b3lypvtz=-224627.95021143
C      -2.21873742     -0.91611172     -0.40339712
C      -1.23481033     -0.14001684      0.06549116
N      -1.36993933      1.23711065      0.31240738
N       0.04154042     -0.64600456      0.36047476
C       1.30813683     -0.15442576      0.00403721
N       1.36599223      1.13401515     -0.42690749
O       2.28415980     -0.87367186      0.11735377
H      -3.23027977     -0.54584176     -0.47977255
H      -2.02519040     -1.92986749     -0.71838510
H      -1.04431955      1.50969520      1.23173417
H      -2.30618448      1.57268853      0.14174988
H       0.08484046     -1.64061763      0.51293362
H       0.52880461      1.67009930     -0.58481753
H       2.25618294      1.45176579     -0.76327716
