10
b3lypvtz=-202133.37984811
C      -2.89802091     -0.00231221      0.00000356
C      -1.69804756      0.04087562     -0.00005924
C      -0.29051196      0.10269906     -0.00013328
C       0.58490621      1.14813104     -0.00001230
C       1.85242465      0.52005979     -0.00001114
N       1.75939218     -0.78370376     -0.00001512
O       0.39914429     -1.06454148      0.00015647
H      -3.95911712     -0.04281416      0.00005803
H       0.35154368      2.19692288      0.00005354
H       2.83050054      0.97498023     -0.00000352
