15
b3lypvtz=-214518.53106495
C      -3.05203829     -0.35541722     -0.20252800
N      -1.93699619      0.23638763     -0.04658398
C      -0.77741224     -0.49672432      0.15055637
C       0.41092617      0.13571340      0.24963357
N       0.55354592      1.49896225      0.03675983
C       1.69879171     -0.59831078      0.47793794
O       2.58644169     -0.50212353     -0.63402670
H      -3.95275232      0.23343680     -0.34428907
H      -3.15528803     -1.44577188     -0.20151106
H      -0.82149964     -1.58241138      0.20865308
H      -0.33156134      1.98044881     -0.04834239
H       1.20410354      1.96848521      0.65017593
H       1.50129208     -1.65601006      0.64470105
H       2.18646673     -0.20438872      1.38265191
H       2.44409220      0.35706281     -1.04601250
