10
b3lypvtz=-248797.85244646
C       1.89047067     -0.07883810     -0.68302219
N       1.15336028     -0.16418216      0.33120303
C      -0.09293897      0.35573146      0.52860090
O      -0.33713474      1.40151033      1.09623048
C      -1.26800765     -0.55498796      0.07989825
O      -1.13662827     -1.53247980     -0.59752331
O      -2.43679951     -0.07650112      0.50743778
H       1.61155137      0.47489034     -1.58083728
H       2.85838237     -0.57249962     -0.67582247
H      -2.24235554      0.74735664      0.99393482
