10
b3lypvtz=-248809.38740091
C      -0.06186015      0.97197576     -0.47719478
C      -0.74973406     -0.21488226      0.14248834
N      -1.97796593     -0.38335495      0.28526667
O       0.25229925     -1.08779580      0.52504826
C       1.48971722     -0.55843375      0.20386313
O       2.51884625     -1.09878012      0.42072783
O       1.33094866      0.64588567     -0.38284798
H      -0.33782604      1.10313863     -1.52257639
H      -0.26131568      1.89132911      0.07157561
H      -2.20310951     -1.26908227      0.73364933
