15
b3lypvtz=-214523.11586879
N      -2.34464937     -0.19080840     -0.12881959
C      -1.09803192     -0.06315447      0.03341918
C      -0.33601722      1.24546110      0.20141713
N       1.05246142      1.24490541     -0.25564374
C       1.73929138      0.04704597      0.22145310
C       1.01203843     -1.21820841     -0.19395568
O      -0.37500735     -1.20767827      0.18441416
H      -2.79091292      0.72280197     -0.16604512
H      -0.33678937      1.47936790      1.27219911
H      -0.88210146      2.04369118     -0.29967228
H       1.07892600      1.27172414     -1.26937845
H       1.80095794      0.10231871      1.31218785
H       2.76046722      0.03177845     -0.16388993
H       1.43181252     -2.10624653      0.27824156
H       1.07149669     -1.34851877     -1.28087630
