11
b3lypvtz=-236323.09736972
C       1.43705160     -0.70186736      0.01731913
N       1.16078053      0.62788015     -0.12236662
C      -0.18287236      0.73585354     -0.39114117
C      -0.65223784     -0.54695072     -0.39971004
N       0.35385540     -1.42874285     -0.14674609
O      -1.94379194     -0.92284841     -0.62723563
O      -0.74469237      1.95994186     -0.57981550
H       2.42389595     -1.07208606      0.23336801
H       1.80050882      1.39968800     -0.04757793
H      -1.96893904     -1.88480663     -0.57077178
H      -1.68355874      1.83393847     -0.75423891
