20
b3lypvtz=-182676.52708111
C       2.35982986     -1.18829181     -0.08637610
C       1.43668045      0.01011265     -0.32831999
C       1.93526840      1.23595416      0.44427401
C      -0.01642802     -0.35749405      0.01792998
C      -1.05220689      0.69432886     -0.36934607
C      -2.49459087      0.32477982     -0.12429247
N      -2.97755298     -0.73115959      0.37950216
H       2.36026788     -1.47246034      0.96936903
H       3.38912134     -0.95679268     -0.36602728
H       2.04367664     -2.05871851     -0.66436126
H       1.47149977      0.24840131     -1.39786251
H       1.89386470      1.05770451      1.52233913
H       2.97189292      1.46061212      0.18698160
H       1.34614315      2.12844899      0.23086855
H      -0.26170960     -1.29699180     -0.48694401
H      -0.08037163     -0.56080133      1.09272911
H      -0.95574025      0.94517177     -1.43301031
H      -0.87133186      1.63682754      0.15814970
H      -3.21138999      1.09271229     -0.42958082
H      -2.24073900     -1.39102492      0.63554854
