15
b3lypvtz=-214493.9327124
C       1.06387253      1.82628357     -0.06284577
C       0.62408989      0.36165021     -0.25524859
C       1.60566556     -0.57097755      0.42948698
N       2.33269152     -1.45759793     -0.10242477
C      -0.75833175      0.14513624      0.29200504
N      -1.68876349     -0.24442740     -0.47565549
O      -2.90397727     -0.38138752      0.21392652
H       0.37135248      2.50088658     -0.56628654
H       1.08843050      2.09476771      0.99520816
H       2.06177967      1.98334631     -0.47319140
H       0.60079919      0.12156208     -1.31989947
H       1.69327297     -0.43820566      1.51233178
H       2.17362797     -1.50611985     -1.11184766
H      -0.94896760      0.33016134      1.34999012
H      -3.50642515     -0.68054811     -0.47473991
