15
b3lypvtz=-191212.76184154
N      -2.78889687     -1.01198326     -0.25210565
C      -2.07973901     -0.16517673      0.07069292
C      -1.15856471      0.90017612      0.45760178
C       0.09320337      0.96839552     -0.43876282
C       0.94264849     -0.27382021     -0.34257338
C       2.42057479     -0.21588782     -0.39324866
N       1.72927962     -0.40725757      0.89309356
H      -1.70067190      1.84731834      0.42771605
H      -0.85050972      0.73394544      1.49207900
H       0.68191055      1.82901895     -0.11770171
H      -0.20304549      1.13869852     -1.47617869
H       0.48242875     -1.17497393     -0.73505096
H       2.91728185      0.74057377     -0.50302205
H       2.95112035     -1.05364186     -0.82920046
H       1.78219592     -1.37733629      1.18328507
