11
b3lypvtz=-233892.0167887
O      -1.94263564      0.51652737      0.97327766
C      -1.42511323     -0.38018411      0.01270709
C       0.05726936     -0.26307102     -0.15874323
N       0.74241143      0.82609764      0.15489459
N       1.96947672      0.46960811     -0.19925115
H       2.77161021      1.06875827     -0.08245173
N       2.06317620     -0.74809424     -0.69851197
N       0.85110358     -1.23073766     -0.68184963
H      -1.52040478      1.37365941      0.85112855
H      -1.90347931     -0.24227214     -0.96611782
H      -1.66351453     -1.39029162      0.34491763
