18
b3lypvtz=-205214.78479207
C      -2.89629905     -0.30364314     -0.17475123
C      -1.41079176     -0.16042460     -0.47496730
N      -0.70360350      0.35248961      0.70208061
C       0.75576408      0.46867416      0.59760303
C       1.19844354      1.53276418     -0.39861974
C       1.40527995     -0.88770556      0.33510388
O       2.23272237     -1.12712428     -0.50450533
H      -3.43768908     -0.64511294     -1.05766106
H      -3.06896451     -1.03293787      0.62080442
H      -3.31745119      0.65019598      0.14427757
H      -1.27373604      0.55116529     -1.29074396
H      -1.01539677     -1.12338740     -0.83232471
H      -0.95138347     -0.19586873      1.51760281
H       1.10153679      0.76093782      1.59751853
H       2.27827697      1.66677877     -0.35272864
H       0.95468149      1.25115526     -1.42217651
H       0.71088094      2.47893439     -0.16747422
H       1.02633524     -1.69458193      1.00429884
