15
b3lypvtz=-214519.2149185
N       3.13728711     -0.44570408     -0.53997157
C       2.00031085     -0.46837939      0.01601210
C       1.19440590      0.70900369      0.50397695
C      -0.23119880      0.73388869     -0.03448731
O      -0.92581599     -0.39590184      0.50408153
C      -2.22550806     -0.57240655      0.15327767
N      -2.97179318      0.11294577     -0.59507090
H       3.48025971      0.51382577     -0.63646610
H       1.53955211     -1.44548005      0.17096635
H       1.14286791      0.67738058      1.59681305
H       1.69380857      1.63988646      0.22428090
H      -0.73503105      1.65514285      0.27146978
H      -0.23765459      0.68372558     -1.12748636
H      -2.60182491     -1.46745688      0.64068582
H      -2.51506059      0.92747040     -0.99867792
