15
b3lypvtz=-216917.40981759
C       2.66286992      0.60885549      0.17478966
C       2.09170171     -0.56549602     -0.14646377
C       0.71829110     -0.99307927      0.00855057
C      -0.35223880     -0.16853523      0.02990195
O      -0.30561234      1.16909128     -0.12634643
O      -1.59131940     -0.65359455      0.18882369
C      -2.70898901      0.20873348     -0.05345732
H       3.70356800      0.79367691     -0.05024160
H       2.15436359      1.38719651      0.73208178
H       2.74013082     -1.31170843     -0.59795846
H       0.50381620     -2.05135608      0.02246394
H       0.59958263      1.40601465     -0.38480325
H      -2.71395036      1.05295592      0.63474330
H      -3.58583065     -0.41043799      0.11301797
H      -2.70578643      0.57846632     -1.07915204
