14
b3lypvtz=-281216.16547975
C       0.77630753     -0.69867435     -0.02434701
C      -0.29263763      0.35447427      0.21268761
C      -1.68444437     -0.14687884     -0.13626307
F      -2.58991031      0.86304018      0.08096825
F      -2.03769729     -1.18681094      0.67594094
O       0.01762047      1.47050742     -0.61468042
N       2.06640004     -0.19254872      0.43662585
H       0.51979115     -1.58792589      0.55259542
H       0.75501274     -0.97423492     -1.08943150
H      -0.29103567      0.63542173      1.27144292
H      -1.78650234     -0.46441678     -1.17563665
H      -0.56821220      2.19805350     -0.38265598
H       2.78843756     -0.88914979      0.30323617
H       2.32687032      0.61914312     -0.11048256
