13
b3lypvtz=-213775.44047673
C       3.17653027      0.23766391      0.12794426
N       2.15852765     -0.48117050     -0.11672252
C       0.89875840      0.09986398      0.03003768
C      -0.21463914     -0.60458576     -0.19401167
C      -1.60391241     -0.11142745     -0.01202159
N      -1.79634626      1.24665197     -0.06780369
O      -2.51724252     -0.88611768      0.21287248
H       4.16798186     -0.19160472      0.02029507
H       3.11122075      1.28411047      0.44833379
H       0.85516120      1.14052759      0.35919403
H      -0.13589885     -1.64950686     -0.46091051
H      -2.75465898      1.55498561     -0.04370765
H      -1.14058697      1.83241544     -0.55371768
