18
b3lypvtz=-205209.59898475
C      -2.24794396     -1.21286619      0.47498153
C      -1.27551435     -0.68075700     -0.58799893
C      -0.53418904      0.54490077     -0.15126329
O      -1.41484699      1.56663055      0.16279301
C       0.79268469      0.70992393     -0.08789799
N       1.79479317     -0.18308300     -0.51109309
C       2.84382754     -0.47770567      0.45949775
H      -2.78268279     -2.08779750      0.10227140
H      -2.98043930     -0.45352042      0.74369050
H      -1.71377584     -1.50172911      1.38160318
H      -0.56580251     -1.46504477     -0.85481912
H      -1.83512459     -0.44620018     -1.49950892
H      -0.91591192      2.34596009      0.42851205
H       1.18595865      1.65942752      0.26881520
H       1.41574737     -1.02526358     -0.91757499
H       3.33930021      0.45142559      0.74774944
H       3.59269568     -1.12171716     -0.00175740
H       2.47926195     -0.96076289      1.37669166
