15
b3lypvtz=-219501.67639868
C      -0.90947318     -1.13723001     -0.22480644
C       0.05266801      0.01079947      0.15306038
C      -0.62758834      1.36987147     -0.07353353
F      -1.75729423      1.46209340      0.74390317
C       1.23893042     -0.03154856     -0.71240868
C       2.18970853     -0.07023722     -1.44223961
N       0.48717426     -0.02251270      1.56006113
H      -1.81322082     -1.07176074      0.38057018
H      -1.19052675     -1.09248865     -1.27795442
H      -0.43025223     -2.09854133     -0.04110399
H      -0.95353596      1.47757081     -1.10797357
H       0.04950405      2.17626184      0.20290076
H       3.03943891     -0.10482084     -2.07748487
H      -0.33023094      0.03149724      2.15785940
H       0.95469830     -0.89895416      1.75915009
