12
b3lypvtz=-249561.60556623
C       1.01010812     -0.19924276      0.56336092
C      -0.27145497      0.32547277     -0.06340390
O      -0.33782660      1.32902060     -0.72301001
C      -1.52835297     -0.53526380      0.20595658
O      -1.49760131     -1.54535638      0.86136560
O      -2.62899834     -0.03225523     -0.36495863
N       2.19684964      0.59437427      0.32188942
H       1.16045592     -1.22375416      0.21020573
H       0.83655059     -0.30629759      1.63832237
H      -3.36267496     -0.62812485     -0.14761895
H       2.06005091      1.54019363      0.65978015
H       2.36289398      0.68123351     -0.67430603
