14
b3lypvtz=-203705.98113982
C       2.40945504     -0.12327131     -0.28195292
C       0.94933515      0.07218470     -0.09986492
C      -0.12290930     -0.74749081     -0.25536082
C      -1.28850936      0.02279487      0.07686183
N      -2.61141224     -0.42761521     -0.02760128
C      -0.83428923      1.25963289      0.41130685
O       0.53817264      1.30277333      0.30009849
H       2.81049436      0.56391768     -1.03061938
H       2.95296305      0.05306643      0.64935053
H       2.61170622     -1.14186057     -0.60880578
H      -0.09918589     -1.77546996     -0.57749704
H      -3.27380041      0.15804039      0.45939724
H      -2.72575571     -1.38647513      0.26736021
H      -1.31626433      2.16987270      0.71732699
