15
b3lypvtz=-242860.83890975
N       2.46394423      0.98975352     -0.07830555
C       1.60268678     -0.05855414      0.04698487
O       1.97344322     -1.21495166     -0.03321275
C       0.15628200      0.32318374      0.33880477
C      -0.83419116     -0.69869743     -0.21466252
C      -2.26036049     -0.42604661      0.20412949
F      -2.67839993      0.82503375     -0.27115841
H       2.15226434      1.94325064     -0.06699265
H       3.43517703      0.79456451     -0.25208845
H       0.05950109      0.37961589      1.42862463
H      -0.06884293      1.31949011     -0.04468186
H      -0.55100907     -1.69543143      0.12923975
H      -0.77882834     -0.71892881     -1.30549139
H      -2.36498715     -0.40592330      1.29208393
H      -2.94404761     -1.17159878     -0.20528885
