13
b3lypvtz=-216186.69756912
O       1.05800968      2.07820027      0.34398899
C       0.46040429      1.03513983      0.16594174
C      -1.03011823      0.80161542      0.01626576
C      -1.17251821     -0.72296466     -0.18587021
C       0.23783522     -1.25288966     -0.13663490
C       1.12983558     -0.27298994      0.05801383
O       2.46876481     -0.34007626      0.15901572
H      -1.40874046      1.38060754     -0.82704044
H      -1.54819529      1.16371378      0.90525659
H      -1.79325746     -1.17887528      0.58991583
H      -1.65170981     -0.96285755     -1.13869289
H       0.47618697     -2.30105194     -0.24741919
H       2.77340292      0.57222845      0.29725917
