19
b3lypvtz=-171831.56767218
C      -3.29922025     -0.22933678     -0.26657655
C      -1.90637582      0.26704889     -0.02600542
C      -0.89334352     -0.48016831      0.40357080
C       0.50334743     -0.03655250      0.63219993
C       1.06787782      1.23389649      0.05308511
C       1.53825827     -0.09459260     -0.47497309
C       2.93833455     -0.58684496     -0.20354176
H      -3.39232248     -1.29094958     -0.03468683
H      -3.59885478     -0.08334757     -1.30854219
H      -4.02400572      0.31662902      0.34417542
H      -1.73632199      1.32222226     -0.22010522
H      -1.08043465     -1.53201748      0.61232490
H       0.89511174     -0.31218647      1.60687035
H       0.43458267      1.83939191     -0.57973788
H       1.75215216      1.80382952      0.66823216
H       1.13935995     -0.36600667     -1.44570282
H       3.64928623     -0.17601992     -0.92458685
H       3.27175273     -0.29014992      0.79314263
H       2.99697067     -1.67625733     -0.26259568
