17
b3lypvtz=-191964.47227639
C       1.81841630     -0.16414277     -0.72448796
C       0.44051875      0.32485351     -0.32162339
C       0.23830619      0.96925574      1.05008615
N       0.81108111      1.81085386      1.78579675
C      -0.97490989      0.08958958      1.26710436
N      -0.54091072     -0.71098752      0.09562912
C      -1.54956525     -1.11697017     -0.85830754
H       1.77245265     -0.73064069     -1.65629806
H       2.49477367      0.67876427     -0.88439381
H       2.23626075     -0.80804064      0.04901417
H       0.02774564      0.98635891     -1.10170566
H       1.63680701      2.20283497      1.32905967
H      -1.91300742      0.64072939      1.10475497
H      -1.04027327     -0.45661989      2.20922933
H      -2.22882458     -1.83502655     -0.39645995
H      -2.15003593     -0.27150580     -1.23679484
H      -1.07883499     -1.60930623     -1.71060331
