15
b3lypvtz=-237834.92910657884
C      -1.39156980      0.56334340      0.35653642
C      -1.33114559     -0.67632539     -0.56941189
O       0.06267438     -0.97659302     -0.70059581
C       0.79680923     -0.12469919      0.18000610
N      -0.01288010      1.06644226      0.37552219
N       2.09184624      0.05740788     -0.40337865
O       0.93120308     -0.71093807      1.44810504
H      -1.68218299      0.27931991      1.36664670
H      -2.08003082      1.32808398      0.00215835
H      -1.72948326     -0.47547710     -1.56654433
H      -1.85983173     -1.53295551     -0.14840063
H       0.14346812      1.67429751     -0.41979019
H       2.63356075      0.71750109      0.13828477
H       2.02985549      0.35423380     -1.36799211
H       1.39770701     -1.54364155      1.30885404
