13
b3lypvtz=-239681.99416291
N       2.32113880     -1.03686479     -0.00468333
C       1.35464726     -0.19074359      0.00487849
N       1.50431040      1.18687719      0.04451608
C      -0.00255111     -0.74479683      0.03817544
C      -1.18365286     -0.12013076      0.01100684
N      -2.43708028     -0.67521599     -0.09477258
F      -1.28518397      1.23050559      0.01494547
H       3.22479325     -0.56469742     -0.01670473
H       0.72753066      1.76125420     -0.23148008
H       2.40680661      1.53673990     -0.23039115
H      -0.02305857     -1.82411784      0.06864642
H      -3.15763477     -0.18732558      0.41739067
H      -2.46817242     -1.67432008      0.03110447
