16
b3lypvtz=-204452.93303228
C      -1.01719901     -1.15450894     -0.20355307
C      -0.11016371      0.04427582      0.06099787
C       0.09234881      0.40752012      1.55023371
O       1.50257992      0.03313047      1.46535358
C       1.38054487     -0.30474671      0.13977012
N       2.31433847     -0.73555754     -0.57486889
C      -0.42684159      1.21793023     -0.86208119
H      -2.06487528     -0.88198252     -0.05943221
H      -0.78515753     -1.98698747      0.46138670
H      -0.90311921     -1.50403071     -1.23128650
H      -0.01382227      1.46111917      1.80692341
H      -0.43136457     -0.21733653      2.27306236
H       1.99770315     -0.92019389     -1.52302033
H      -0.29902311      0.93101346     -1.90740420
H       0.22569985      2.06923325     -0.66585165
H      -1.46164878      1.54112181     -0.73022971
