19
b3lypvtz=-192716.1153983
C      -3.01751437      0.24087220     -0.10477812
N      -1.60438423      0.24676870     -0.45360064
C      -0.81083142     -0.70184727      0.31663304
C       0.63247730     -0.64490567     -0.10707623
C       1.75332843     -0.84853938      0.84711997
N       1.41444517      0.49095991      0.37457785
C       2.34568611      1.09114542     -0.56994798
H      -3.45966871     -0.71894451     -0.38122722
H      -3.21688877      0.40093600      0.96706799
H      -3.53765741      1.01683795     -0.66703845
H      -1.21973920      1.17272604     -0.30626996
H      -1.20148856     -1.70781366      0.13154531
H      -0.87464025     -0.52871258      1.40328797
H       0.81456127     -0.94804247     -1.13506216
H       2.66008409     -1.30525059      0.46244016
H       1.55266261     -1.04590226      1.89335556
H       2.80804065      0.35876669     -1.24797383
H       1.82129662      1.83227724     -1.17475127
H       3.14013068      1.59876824     -0.02070201
