16
b3lypvtz=-204420.86631297
C      -1.80369423     -1.39311445      0.26674561
C      -1.13188624     -0.22217894     -0.43241057
C      -1.35852288      1.22550071      0.11962572
C       0.17975877      1.47887216      0.09562197
C       0.35048675      0.00764093     -0.20353254
N       1.29690541     -0.82703035     -0.17494964
O       2.52452426     -0.19408718      0.14315543
H      -1.42879522     -2.34265412     -0.11655952
H      -2.88455785     -1.36692823      0.11352469
H      -1.61140810     -1.36777227      1.34088295
H      -1.34336187     -0.25844168     -1.50528524
H      -1.96541243      1.88373165     -0.49869809
H      -1.76329069      1.21856583      1.13110711
H       0.51385383      2.12102834     -0.72122892
H       0.64685708      1.82758400      1.01601778
H       3.13937141     -0.93410641      0.14869625
