18
b3lypvtz=-205223.55942647
C      -2.55719199     -0.46921931     -0.00626442
C      -1.17680506      0.13731395     -0.00875828
N      -0.87662557      1.23908211     -0.57044052
C      -0.11771524     -0.63642768      0.74837513
C       1.34722834     -0.32872567      0.39012875
C       1.72785986     -0.79153544     -1.01786984
O       1.65809707      1.04071630      0.59849646
H      -3.29009795      0.19954903     -0.45692051
H      -2.87251124     -0.70371331      1.01321785
H      -2.55491093     -1.41199877     -0.55915158
H      -1.68328555      1.66850272     -1.02163046
H      -0.30790578     -1.70771798      0.63451137
H      -0.26817307     -0.41707673      1.81171594
H       1.96828533     -0.87689193      1.10389819
H       1.58543576     -1.86932705     -1.13181214
H       1.13341943     -0.28056915     -1.77563108
H       2.77794939     -0.56436236     -1.20099115
H       0.99232821      1.53831928      0.09549529
