14
b3lypvtz=-224598.92126549
N      -2.32835106     -0.80204466      0.21869306
C      -1.41227471      0.02753844      0.47449065
C      -0.25694519      0.44261545     -0.42587979
N      -0.04565774      1.88093429     -0.29482305
C       1.00268827     -0.29476261      0.01567059
N       1.94867814      0.14547634      0.72312587
O       1.00013687     -1.56600314     -0.44654941
H      -2.21565428     -1.20339508     -0.71509312
H      -1.41266059      0.52150462      1.44875068
H      -0.48384134      0.10442772     -1.44454991
H       0.63734170      2.20695064     -0.96828238
H      -0.90617625      2.38731168     -0.46324104
H       1.76444612      1.11052154      0.98899033
H       1.79219907     -1.99270521     -0.08894248
