15
b3lypvtz=-214518.37784596
C       2.26698153     -0.47045306      0.17153197
N       1.52211504      0.50523429     -0.17458912
C       0.14445608      0.59222455     -0.01199117
C      -0.39400185      2.00470083     -0.00971527
C      -0.71383520     -0.46537052      0.01478211
N      -0.40082474     -1.80618217     -0.05725106
O      -2.06671320     -0.31160399      0.07928545
H       1.93401132     -1.35448022      0.71944636
H       3.33091063     -0.39960807     -0.03644115
H      -1.29138866      2.13124501     -0.62696430
H      -0.62415460      2.37411661      0.99535968
H       0.37037044      2.65853508     -0.42549986
H       0.48767261     -2.01307655     -0.49028397
H      -1.16183016     -2.36298018     -0.41955755
H      -2.27353924      0.62170839      0.19161288
