14
b3lypvtz=-226997.6200547
N      -2.33052612     -0.25213342     -0.06364000
C      -1.04042006     -0.92329558      0.11681157
C       0.07110086      0.00041628     -0.36173533
C       1.46533529     -0.59420891     -0.21255851
O       1.68885201     -1.67039150      0.27526626
C       0.05547435      1.34882879      0.35778861
O       0.62301099      2.32501699     -0.05537470
H      -3.07444067     -0.77375109      0.38279404
H      -2.56846474     -0.18396987     -1.04659698
H      -0.95171929     -1.89199664     -0.38598828
H      -0.90256991     -1.11933313      1.18210138
H      -0.03653927      0.23672198     -1.42750657
H       2.27997707      0.05473514     -0.58521213
H      -0.49075852      1.35574196      1.31890364
