16
b3lypvtz=-181114.56305389822
C      -1.51878249     -0.98582128     -0.22503228
C      -0.93486667      0.28373916      0.33113814
C      -1.66472448      1.38044701      0.52061931
C       0.54125387      0.25644768      0.66159702
C       1.42960176      0.17311397     -0.56462712
C       2.70307305     -0.51579085     -0.57880723
N       1.82595519     -1.21734564     -1.12485455
H      -2.57667749     -0.86996781     -0.45825563
H      -0.99302355     -1.30013643     -1.12892619
H      -1.41258272     -1.80516743      0.49239291
H      -1.23408752      2.28608052      0.92977988
H      -2.71913937      1.40939632      0.27576780
H       0.76337561     -0.59833210      1.30833809
H       0.80206774      1.15871480      1.22220975
H       1.23299403      0.92197186     -1.32645985
H       3.75556303     -0.57734979     -0.33488005
