17
b3lypvtz=-194378.55364458
C       2.52757284      0.16570241     -0.17419921
O       1.28918234     -0.44907889     -0.45988652
C       0.28126789     -0.21329285      0.51938369
C      -0.85528493     -1.22933273      0.26936086
C      -1.95782317     -0.40788405     -0.34285310
C      -1.69817074      0.89375966     -0.29601595
C      -0.37515081      1.18663060      0.36138346
H       2.93420113     -0.18317085      0.78388525
H       2.45576790      1.25915660     -0.14018886
H       3.21481574     -0.11101986     -0.97214818
H       0.72499035     -0.33776909      1.51337624
H      -1.18097885     -1.70306284      1.20092563
H      -0.49621549     -2.02655262     -0.38434147
H      -2.85560410     -0.84836740     -0.75601807
H      -2.35113951      1.67212453     -0.66863829
H      -0.51351054      1.67873007      1.32993615
H       0.25560895      1.84793932     -0.23723662
