16
b3lypvtz=-227746.08710016
C      -2.80910858     -0.16981442      0.10532759
O      -1.45597503     -0.34699623     -0.26110913
C      -0.63009984      0.73263388      0.10681672
C       0.81112075      0.43624024     -0.31429830
N       1.74472067      1.51930830      0.01087168
C       1.32808131     -0.81703065      0.37749432
O       1.61348032     -1.84397429     -0.17252481
H      -3.35153790     -1.05355288     -0.22419240
H      -2.92085114     -0.06604509      1.19167908
H      -3.24209264      0.71593420     -0.37583275
H      -0.66947720      0.89741330      1.19650144
H      -0.95923629      1.66548911     -0.37376574
H       0.84524741      0.24890843     -1.38720194
H       1.60421928      1.85669110      0.95657406
H       1.61888964      2.30544518     -0.61369982
H       1.45027125     -0.70448520      1.47924101
