14
b3lypvtz=-201270.93911659
C      -2.31908970      0.02208508     -0.03976318
N      -0.88068196      0.01019370     -0.24160368
C      -0.16133423      1.19490821      0.09418092
C       1.16633253      1.13731444      0.08300680
N       1.78013675     -0.07915073     -0.29588138
N       1.08983295     -1.24508553      0.15414445
C      -0.17634091     -1.14116231      0.13348393
H      -2.60587093      0.16428381      1.01122466
H      -2.74178991     -0.91798313     -0.39091409
H      -2.75954961      0.82624338     -0.62859047
H      -0.72783436      2.06007896      0.39971858
H       1.79927927      1.96429636      0.36669297
H       2.73703073     -0.15872793      0.01251031
H      -0.76239261     -1.99986129      0.43871718
