14
b3lypvtz=-203661.4777224
C       1.76866232      0.56472869     -0.17231781
C       0.46097786     -0.07907256      0.13257334
O       0.44873276     -1.27523410      0.95444875
C      -0.20423656     -1.32652400     -0.31503975
C      -1.61055808     -0.75076275     -0.10212237
C      -0.91123814      0.54678677      0.33435645
N      -1.37594301      1.68933649      0.57822868
H       1.67164295      1.26157119     -1.00650911
H       2.13677644      1.11992622      0.69339217
H       2.51104202     -0.19020307     -0.42906803
H       0.13574335     -2.06236495     -1.02985995
H      -2.21481641     -1.26634956      0.64260446
H      -2.18718931     -0.60079345     -1.01572118
H      -0.62959619      2.36895508      0.73533435
