16
b3lypvtz=-227745.75770161
C       1.28975545      1.70192224      1.11756074
N       0.76187008      0.98926088      0.22204269
C       1.13240679     -0.41311385      0.11414286
C      -0.09387989     -1.33661059      0.12533038
O      -0.83984209     -1.35382186     -1.07355906
C      -1.75997768     -0.28916065     -1.26685224
O      -1.20252152      0.85597017     -1.82771739
H       2.03266453      1.31819243      1.82564370
H       1.00914415      2.74841482      1.20493771
H       1.81203871     -0.71315983      0.92356405
H       1.64619771     -0.55200745     -0.83978586
H      -0.73806902     -1.07953067      0.97665904
H       0.26208833     -2.35784582      0.27188835
H      -2.49519481     -0.66382517     -1.97655554
H      -2.24594426     -0.07356201     -0.30325068
H      -0.57073648      1.21907736     -1.17964876
