15
b3lypvtz=-214543.17627991
C      -2.47102760     -0.79916380     -0.10040861
C      -1.17099204     -0.05612284      0.00815101
N      -1.30793353      1.29461959      0.25551242
C       0.01366532     -0.68632499     -0.15694600
C       1.32516692     -0.05476536     -0.08522130
N       1.67966837      1.14853551     -0.33402415
O       2.28444757     -0.93345851      0.31237143
H      -2.30732662     -1.84649775     -0.33941823
H      -3.02960327     -0.74163127      0.83826270
H      -3.09742514     -0.35894101     -0.88032864
H      -0.50894770      1.76657088      0.65286786
H      -2.18631917      1.58370158      0.65383948
H       0.00767579     -1.75543715     -0.30684021
H       0.92022236      1.68582039     -0.73779044
H       3.11880071     -0.44374726      0.27501968
