11
b3lypvtz=-210580.63265444
C      -2.56491623      0.30754481     -0.00004509
C      -1.54044365     -0.53264290     -0.00001052
N      -0.18389859     -0.15948214      0.00000199
C       0.44135004      1.03765716      0.00000510
N       1.73491433      0.84719849     -0.00003030
N       1.90806372     -0.50651651      0.00008990
N       0.78265613     -1.11577753      0.00007848
H      -3.57020968     -0.08459361     -0.00006557
H      -2.45141627      1.38214180     -0.00005524
H      -1.65416363     -1.60642110      0.00001121
H      -0.05791618      1.98936352     -0.00000197
