13
b3lypvtz=-237086.90663903
N      -2.27131354     -0.28882484      1.58558568
C      -2.07275288     -0.37372313      0.34556345
N      -0.86848260     -0.20816686     -0.37232732
C       0.36541955      0.08632170      0.14430067
O       0.58690589      0.24890292      1.33104614
C       1.49625764      0.20692597     -0.87368010
O       2.70257845      0.50981202     -0.23685661
H      -1.41396169     -0.06938557      2.08988068
H      -2.89940678     -0.60359346     -0.32607058
H      -0.92946014     -0.32117284     -1.37241834
H       1.23287064      0.98690179     -1.59999291
H       1.57395251     -0.73900756     -1.42557413
H       2.49729296      0.56480986      0.71044337
