15
b3lypvtz=-216926.36298472
C      -1.46681249      1.12348857      0.09372807
C      -0.81934530     -0.01554088     -0.17302630
C       0.48276392     -0.09953101     -0.91641854
C       1.69868536     -0.13351635      0.02392709
O       1.86175497      1.07100263      0.76070277
C      -1.41748177     -1.27450307      0.33199762
O      -0.93468909     -2.37178899      0.17690030
H      -2.39297571      1.11805100      0.65687027
H      -1.10354500      2.08442034     -0.24591377
H       0.58703991      0.75631017     -1.58428953
H       0.49442890     -1.01110874     -1.51722362
H       1.63462361     -1.00084537      0.68809483
H       2.60390468     -0.23932919     -0.57372919
H       1.14527096      1.13825466      1.39946206
H      -2.37362294     -1.14536378      0.87891793
