20
b3lypvtz=-182667.73106746
C      -2.14495731     -1.55827410     -0.05977874
C      -1.86453804     -0.08703315     -0.14068137
C      -0.73094892      0.56769653      0.12584712
C      -0.63696045      2.06284003     -0.03098962
C       0.54224770     -0.10164861      0.58390489
N       1.58051616     -0.02442568     -0.44843388
C       2.84437429     -0.62147877     -0.04028033
H      -2.50839874     -1.93220014     -1.02130718
H      -1.27493634     -2.14970321      0.21887065
H      -2.93514263     -1.76370448      0.66847860
H      -2.71314039      0.51162748     -0.46267739
H       0.17899213      2.32585201     -0.70665292
H      -1.56403577      2.48689149     -0.41630892
H      -0.41612596      2.54142271      0.92839904
H       0.35456521     -1.13374235      0.90880839
H       0.92434885      0.43062074      1.46238203
H       1.24070719     -0.47615877     -1.28914000
H       2.75930826     -1.66479835      0.30387647
H       3.54872740     -0.59303952     -0.87203415
H       3.27511035     -0.04024787      0.77790730
