19
b3lypvtz=-195152.65571334
C       1.67726567     -1.43861264     -0.12900351
C       0.46157592     -0.64796326      0.33904646
C      -0.88989684     -1.31232684      0.04156338
C      -1.87167432     -0.13475326      0.07630600
O      -1.09882489      1.05401314     -0.13416382
C       0.27804873      0.71561000     -0.33948987
C       1.14137874      1.84444009      0.18848075
H       2.60770455     -0.91065214      0.08783719
H       1.72975017     -2.41023878      0.36520979
H       1.63631929     -1.61591499     -1.20653304
H       0.53801471     -0.47257048      1.41779118
H      -1.14798394     -2.09431217      0.75576457
H      -0.86543318     -1.76668923     -0.95211625
H      -2.37253767     -0.04985733      1.04474845
H      -2.64165695     -0.21094560     -0.69584052
H       0.46036261      0.59706387     -1.41930786
H       0.89240164      2.78028522     -0.31217649
H       2.19876735      1.63771073      0.01302353
H       0.98177241      1.97701968      1.25977007
