18
b3lypvtz=-205206.18537086
C       2.63379643     -0.25891037      0.20836926
C       1.33274990     -0.67891933     -0.47520888
C       0.05525042     -0.23200591      0.24924737
C      -0.03579541      1.28259397      0.36308443
N      -0.78861175      2.04211143     -0.31048951
O      -1.04402511     -0.76622131     -0.46911169
C      -2.21654194     -0.95318747      0.30824629
H       2.67648965     -0.61444032      1.24039964
H       2.76028381      0.82405544      0.22235320
H       3.49060846     -0.67970711     -0.31836919
H       1.29518445     -0.28643596     -1.49386759
H       1.28778594     -1.76656235     -0.55565542
H       0.06924352     -0.64673894      1.26861049
H       0.63076837      1.74167730      1.09629611
H      -1.35144947      1.47839284     -0.95494205
H      -2.58596772     -0.01367008      0.73076285
H      -2.03703169     -1.66087368      1.12558333
H      -2.97425687     -1.36480415     -0.35560962
