15
b3lypvtz=-191192.30015066
C      -3.20396839     -0.76323339     -0.04558646
C      -2.31647639      0.22094690      0.09453774
N      -0.95722180     -0.03092165     -0.12575688
N      -0.23625993      0.98027279      0.05334629
C       1.15011728      0.77350199     -0.09035590
C       1.79530792     -0.38151817      0.09644577
C       3.27436481     -0.54684920      0.00751336
H      -2.87961491     -1.75522623     -0.32893903
H      -4.25799695     -0.59521255      0.12056013
H      -2.58853495      1.23426916      0.37740909
H       1.68738769      1.69408846     -0.28504241
H       1.20532879     -1.25663523      0.34488858
H       3.77498498      0.38603382     -0.25177793
H       3.53241968     -1.29549821     -0.74736844
H       3.68800118     -0.90870549      0.95331510
