12
b3lypvtz=-228824.09292329
C       1.48290470     -0.73454357      0.33326392
C       0.23595098     -0.26770549     -0.36061247
C      -0.76060026      0.57009025      0.36975867
N      -1.00510952     -0.86552927      0.12513731
C      -1.51731818      1.55117267     -0.36228127
N      -2.14095627      2.32241655     -0.94747912
F       2.47457547      0.23428481      0.22095465
H       1.28740015     -0.91513115      1.39130261
H       1.85685453     -1.65348660     -0.12343990
H       0.33559726     -0.07700600     -1.42314926
H      -0.57733548      0.82521395      1.40605099
H      -1.67196337     -0.98977615     -0.62950615
