11
b3lypvtz=-236273.22402742
C      -1.11889692     -0.46561623      0.81673712
C      -0.54822158      0.21660663     -0.17337136
N      -1.30195185      1.23232521     -0.91603766
O      -2.18116733      1.75798583     -0.28416794
C       0.78334419     -0.10693925     -0.78910331
N       1.78050217     -0.36561814      0.10885850
O       0.92953524     -0.16745089     -1.99108128
H      -0.61753316     -1.28781638      1.30778159
H      -2.13020723     -0.22469918      1.11890264
H       2.70322845     -0.51673134     -0.26488717
H       1.70146802     -0.07204626      1.06626887
