18
b3lypvtz=-205207.18264029
C      -0.26977838      1.91309283     -0.71845086
C      -0.24731273      0.66460671     -0.25840806
C       0.80579656     -0.32538217     -0.69479631
C       1.53476418     -1.02847153      0.45233431
O       2.08241242     -0.13664676      1.41949498
C      -1.28169251      0.18433697      0.73093309
N      -1.92101064     -1.05905005      0.27651776
H      -1.04055782      2.61332155     -0.42066272
H       0.48270732      2.28051129     -1.40537224
H       0.33921271     -1.10814674     -1.30027852
H       1.53082733      0.18352102     -1.33684317
H       2.31440721     -1.67671922      0.03502167
H       0.84173982     -1.66566687      0.99990382
H       2.62512150      0.51483585      0.96460190
H      -1.98763602      1.00012748      0.92863244
H      -0.77899394     -0.03418288      1.67693952
H      -2.52936383     -0.87287241     -0.51254482
H      -2.50064315     -1.44721506      1.01039540
