9
b3lypvtz=-268830.2948735
O       2.96719305      1.07572758     -0.23132286
C       2.30843201      0.07197137     -0.34488781
C       0.85971134      0.06004207     -0.32627394
C      -0.34080597      0.00092156     -0.32082916
C      -1.80432264     -0.00128933     -0.29735677
F      -2.25795197     -0.97376291      0.54302559
F      -2.28758610     -0.26601262     -1.54384105
H       2.77255886     -0.92097000     -0.47290005
H      -2.21722859      0.95337229      0.03328605
