16
b3lypvtz=-181104.57059931
C       1.67121580     -0.86624392     -0.46887986
C       0.60826157      0.13903538     -0.15130888
C      -0.71112404      0.32116107     -0.87054721
C      -1.76333644     -0.56240082     -0.26137647
C      -1.37233485      0.69332694      0.46659567
C      -0.04051577      0.51407068      1.14234089
N       0.92590805      1.44007554      0.49136015
H       2.24767830     -0.56091627     -1.34642354
H       1.23226124     -1.84298058     -0.68213046
H       2.36874940     -0.98409907      0.36336530
H      -0.84793628      0.81913975     -1.82014071
H      -1.49873973     -1.53322115      0.14217493
H      -2.73042322     -0.53604166     -0.74722852
H      -2.06440369      1.50528864      0.63810962
H       0.15570673      0.12639094      2.13321207
H       1.81903293      1.32741456      0.97087701
