13
b3lypvtz=-213716.68423583
C      -3.46082723      0.14784918      0.00000082
N      -2.33869899     -0.44911049      0.00000015
C      -1.17306455      0.30409009     -0.00000293
C       0.00413382     -0.32794612     -0.00000453
O       1.17007829      0.37421583     -0.00000861
N       2.28525391     -0.47971717     -0.00000795
C       3.36315343      0.18462782     -0.00000979
H      -3.56152188      1.23902157      0.00000271
H      -4.37362027     -0.43960490      0.00000654
H      -1.22045939      1.39332904     -0.00000500
H       0.09941198     -1.40385563     -0.00000405
H       4.27824803     -0.39136164      0.00000135
H       3.39191385      1.27039743      0.00000130
