14
b3lypvtz=-203688.62381989
C       2.30440964      0.27773430     -0.19673249
C       0.88876192     -0.10491299      0.04093884
N       0.17393919     -0.88759895     -0.66327726
C      -1.13883813     -0.90514618     -0.06553396
C      -1.87351636      0.41773147     -0.03472812
C      -1.04365352      0.00591479      1.14049514
O       0.30452981      0.45638464      1.14973940
H       2.69898607     -0.29324318     -1.03212309
H       2.90201910      0.08947914      0.69634657
H       2.37837939      1.34329210     -0.42121461
H      -1.68621331     -1.83530327     -0.10686601
H      -2.94534073      0.37780278      0.10308312
H      -1.51639666      1.21440630     -0.67422117
H      -1.44706641     -0.15654095      2.12801328
