15
b3lypvtz=-193620.02299751
C      -2.68088039     -0.80021002     -0.13095175
C      -1.81876714      0.16970857     -0.40869388
C      -0.82799228      0.75430000      0.56110863
C       0.60430546      0.53270909      0.07600501
O       1.24202005      1.43034621     -0.43239090
C       1.15464461     -0.84314799      0.24463196
C       2.40439554     -1.14095218     -0.09750125
H      -3.36783719     -1.17552699     -0.87784315
H      -2.73827379     -1.24754562      0.85464696
H      -1.79511566      0.59291276     -1.40832452
H      -0.96976526      1.83260447      0.64614228
H      -0.95880885      0.29913673      1.54585570
H       0.49731276     -1.59403135      0.66597582
H       2.81083499     -2.13471202      0.03333109
H       3.04790215     -0.37955466     -0.52012799
