16
b3lypvtz=-204456.66778041
C       2.19518080      1.08390815     -0.55503931
C       1.50562045      0.09869960      0.01246697
C       1.89728301     -1.34635925     -0.10578353
C       0.27528123      0.39299093      0.84259080
N      -0.90079753     -0.29952597      0.32780801
C      -1.90018994      0.38852786      0.00338458
O      -3.03473255     -0.15127750     -0.48593260
H       1.89190943      2.11897401     -0.45800032
H       3.08933848      0.89010009     -1.13421655
H       2.10395244     -1.77328301      0.88035177
H       2.78379858     -1.47059781     -0.72634147
H       1.08128002     -1.93153814     -0.53288931
H       0.12404775      1.47768294      0.90425453
H       0.44748456      0.02833002      1.86193213
H      -1.98384571      1.47494558      0.07219858
H      -2.89773903     -1.10961250     -0.52244730
