13
b3lypvtz=-239448.70264402
O       2.24665829     -0.92011733     -0.74055915
C       1.73876311      0.13551408     -0.45300367
C       0.61456010      0.24171890      0.54359088
O      -0.10997108      1.48218285      0.46943003
C      -1.35974961      0.78415234      0.21684303
C      -0.66331827     -0.58231843      0.21312296
O      -0.70888172     -1.19157931     -1.05160881
H       2.05790936      1.09189921     -0.91170200
H       1.01806453      0.05861847      1.54664129
H      -2.07829189      0.94812154      1.02138800
H      -1.79444187      1.05574805     -0.74553154
H      -0.96888025     -1.26926064      1.00520247
H       0.00767929     -1.83487971     -1.11391349
