20
b3lypvtz=-182663.45687453
C       1.48159242     -1.21685559     -0.43512875
C       0.68276190      0.02345431     -0.01411470
C       0.71317128      0.15571509      1.51229295
N       1.38449083      1.20363247     -0.56168009
C      -0.73647938     -0.08937065     -0.58658972
C      -1.90966177      0.70481744     -0.07904325
C      -1.88329064     -0.79488343      0.08523819
H       1.50449543     -1.31212488     -1.52370288
H       2.51014002     -1.14364291     -0.08133833
H       1.03233617     -2.12487333     -0.03137797
H       0.18336120      1.04809355      1.85058701
H       0.27011361     -0.71019795      2.00396580
H       1.74803220      0.24506219      1.84033895
H       0.85008458      2.04236803     -0.35828018
H       1.43153772      1.13808606     -1.57355901
H      -0.71415684     -0.20687355     -1.66589119
H      -1.78522265      1.30315662      0.81304619
H      -2.59038078      1.13202188     -0.80260702
H      -2.54585042     -1.39217334     -0.52626743
H      -1.73946087     -1.18119201      1.08438342
