16
b3lypvtz=-181101.73280694
C       0.58562020     -0.17550637      0.01188639
C       0.63167258     -1.33282477     -0.93035216
N       0.61972501     -1.17218512     -2.39042169
C       0.34733860     -2.63747972     -2.47040839
C       1.62188406     -3.34639867     -1.93157517
C       1.27146382     -2.70512197     -0.59544021
C      -0.19033687     -2.57663089     -0.99309463
H       0.43828435     -0.51797410      1.03756586
H      -0.23314375      0.49786264     -0.24741262
H       1.51760434      0.39530255     -0.01611012
H       1.52303746     -0.91336511     -2.79005001
H      -0.17739905     -2.99363352     -3.35137086
H       1.49517478     -4.42888766     -1.89855150
H       2.57218783     -3.09930651     -2.41547050
H       1.67472795     -2.92220605      0.38335568
H      -1.11214129     -2.86944472     -0.51575008
