12
b3lypvtz=-223844.80457654
N       2.58393237     -0.77908626      0.16842920
C       1.45021577     -0.22493777      0.09324371
N       0.22261191     -0.86443040      0.17588428
H       0.14255468     -1.84787462     -0.01614997
C      -0.79571116      0.06220592     -0.05179574
N      -2.11258020     -0.37666397     -0.16096462
C      -0.21468389      1.26120656     -0.17134397
O       1.17649173      1.11057198     -0.08591274
H       3.32963446     -0.09880674      0.06826523
H      -2.75169005      0.37218618     -0.38389554
H      -2.43562245     -0.86999987      0.66284815
H      -0.59515317      2.25562900     -0.29870799
