16
b3lypvtz=-181141.72153843
C       1.26257930      0.66640736     -0.52573897
C       1.26257204     -0.66642532     -0.52573560
C       0.08433041     -1.09085393      0.34832745
C      -1.20344072     -0.77780991     -0.47424120
C      -1.20343297      0.77782416     -0.47423940
C       0.08434429      1.09085371      0.34832438
N      -0.00780639      0.00000183      1.34903730
H       1.87135423      1.32863031     -1.12480440
H       1.87133659     -1.32865756     -1.12480146
H       0.12231442     -2.08637839      0.78277467
H      -1.16794817     -1.21012816     -1.47278845
H      -2.07828402     -1.17061481      0.04137115
H      -2.07826921      1.17063541      0.04138009
H      -1.16794286      1.21014532     -1.47278545
H       0.12234256      2.08637886      0.78276877
H       0.83727350     -0.00000286      1.91524713
