16
b3lypvtz=-202052.86924054
N      -2.38453584     -0.71022573      0.34446470
C      -1.20737035     -0.07723787     -0.04821356
N      -1.35948725      1.28506300     -0.26780722
N      -0.12955437     -0.75262189     -0.17047097
C       1.07463371     -0.04422513     -0.48576400
C       2.37597756     -0.62210587     -0.03081832
C       1.87442638      0.65319761      0.60331939
H      -2.27946314     -1.71361774      0.32214405
H      -3.20993787     -0.40316663     -0.14968504
H      -2.07839152      1.72851654      0.28280789
H      -0.49301118      1.79978149     -0.26621683
H       1.09040339      0.43613591     -1.46210318
H       3.23095349     -0.56565068     -0.69041763
H       2.31084102     -1.52586535      0.55876583
H       1.48835255      0.58630794      1.61111136
H       2.38537042      1.57904240      0.37257453
