20
b3lypvtz=-182662.34270009
C      -0.24300561      1.98527083     -0.10412708
C      -0.80727215      0.68394918      0.43942188
C      -1.83533577     -0.09984803     -0.41862608
C      -1.18184227     -1.42258534      0.05076994
C       0.06043863     -0.61937089      0.52825280
C       1.25314915     -0.73385878     -0.41182493
N       2.37975741      0.08100664      0.05615887
H       0.53729466      2.38685310      0.54208519
H      -1.03768465      2.73137799     -0.18977138
H       0.19385020      1.85387347     -1.09531105
H      -1.23728317      0.86883791      1.42708717
H      -1.68675502      0.07464680     -1.48581228
H      -2.89139189      0.04803748     -0.19276609
H      -1.00409435     -2.18567698     -0.70853381
H      -1.72136706     -1.88335369      0.87803629
H       0.39928143     -0.86050394      1.53969001
H       0.97961572     -0.38497080     -1.41142569
H       1.50049169     -1.80134886     -0.51582888
H       2.72754293     -0.28127257      0.93708625
H       3.15061513      0.03585649     -0.59977913
