17
b3lypvtz=-217680.27376271
C       2.22109995      0.98856665      0.27803599
C       1.51699572     -0.33452153     -0.00901542
C       0.14244764     -0.11827385     -0.58750977
C      -1.00778439     -0.39038084      0.01701683
C      -2.36019885     -0.15787269     -0.58674651
O      -3.12954565      0.81673098      0.12316529
O       1.50450716     -1.06655122      1.21407929
H       1.67023978      1.54372358      1.03746974
H       2.27991415      1.59863426     -0.62385095
H       3.23156072      0.80281550      0.64147508
H       2.11214084     -0.88066398     -0.75553808
H       0.12991280      0.30732355     -1.58821114
H      -0.99083975     -0.79870749      1.02424510
H      -2.91401091     -1.10411618     -0.64689754
H      -2.26112724      0.22858466     -1.60111744
H      -3.27192744      0.49999237      1.02029333
H       1.12661548     -1.93528378      1.04310621
