16
b3lypvtz=-181113.52156387
C      -0.03200339     -1.44483654     -0.87196639
C       0.31217258     -0.28358091      0.04408970
C      -0.62219702      0.03446991      1.20244194
C      -0.56056432      0.97549001      0.04060388
N      -1.69446070      1.02089267     -0.84230849
C       1.71984722     -0.07606926      0.26524030
C       2.89741039      0.08976106      0.43850668
H      -1.10399201     -1.47987220     -1.05169905
H       0.47422085     -1.34096329     -1.83317394
H       0.28691517     -2.38765168     -0.42518499
H      -0.18516920      0.33932866      2.14192281
H      -1.50469191     -0.58651207      1.27840735
H      -0.00511103      1.89428857      0.20906524
H      -1.46159662      1.47290973     -1.71803092
H      -2.45771592      1.53793269     -0.42285990
H       3.93693589      0.23441264      0.59353683
