18
b3lypvtz=-205209.57000636
C      -2.27164905      0.41291246      0.27284154
C      -1.14956601     -0.24426482     -0.03175189
O      -1.19837995     -1.59928167     -0.25131297
N       0.12925506      0.29964110     -0.18668137
C       0.20840727      1.74832915     -0.27309509
C       1.20447469     -0.30720235      0.61948785
C       2.52909408     -0.41667380     -0.12847661
H      -2.25803915      1.44593371      0.57710920
H      -3.21817851     -0.10162829      0.22777317
H      -0.53480993     -1.81455613     -0.91793781
H      -0.51153871      2.11196644     -1.00348362
H       1.20618953      2.03718986     -0.59936412
H       0.00917333      2.24136694      0.68896087
H       0.87410845     -1.29826085      0.92348001
H       1.34126528      0.27568013      1.54084806
H       3.28583630     -0.86999185      0.51416746
H       2.90572529      0.55790750     -0.44074112
H       2.42206304     -1.03553253     -1.02054457
