13
b3lypvtz=-213750.43114313
C      -0.73009527     -1.11571845      0.55222634
C      -0.99677648     -0.05787382     -0.43736966
N       0.25099093     -0.83945255     -0.53451006
C       1.28947333      0.04013145     -0.08501743
N       2.52290820     -0.18806736     -0.03407582
O       0.78225522      1.24795528      0.30869103
C      -0.59522295      1.35413433     -0.06731111
H      -1.22026205     -2.07511170      0.46303991
H      -0.45160981     -0.82323753      1.55774524
H      -1.72381811     -0.20406705     -1.22446538
H       2.70803656     -1.13621623     -0.34772822
H      -0.68532464      2.02576081     -0.92405547
H      -1.15055492      1.77176281      0.77283063
