11
b3lypvtz=-233830.50621419
C      -2.01412904      0.06678444     -0.05301399
N      -3.07089844     -0.37057842      0.50139454
C      -0.70978167     -0.25381201      0.52159075
N       0.32844698      0.20242876     -0.06179253
O       1.47820098     -0.18953879      0.60465703
N       2.58312345      0.35523127     -0.10132440
N       3.59770844      0.01413123      0.48028653
H      -1.98745122      0.68437255     -0.95437624
H      -3.90162439     -0.06931439     -0.00641998
H      -0.66957143     -0.86539739      1.41959073
H       4.36597635      0.42569273     -0.05842523
