19
b3lypvtz=-171831.58234963
C      -2.02239809     -1.03509255     -0.30807398
C      -1.28707002      0.00648725      0.07611304
C      -1.83492831      1.40996504      0.07256351
C       0.12744405     -0.10557068      0.53239137
C       0.98767754     -1.31641411      0.29454976
C       1.27355117     -0.04698277     -0.46009836
C       2.51140374      0.76704900     -0.17353675
H      -3.03937436     -0.90640590     -0.65606054
H      -1.64088615     -2.04677176     -0.28494075
H      -1.23140269      2.06245598     -0.56436285
H      -1.80483407      1.84044642      1.07780939
H      -2.86526862      1.44085549     -0.27979949
H       0.32547855      0.42799244      1.45771286
H       1.67432992     -1.60202713      1.08095417
H       0.56797926     -2.15009335     -0.24999802
H       0.96500542     -0.05731793     -1.49940213
H       3.37335651      0.38132738     -0.72342221
H       2.76027013      0.74086029      0.88939610
H       2.37709501      1.81337891     -0.45766112
