14
b3lypvtz=-226985.74478303
C      -0.49042188      1.44946431      0.31315454
C      -0.22775919      0.15928765      0.44997533
C      -1.16324995     -0.98156835      0.14635526
O      -2.40091633     -0.58600123     -0.40769315
O       0.97507780     -0.30820637      0.97363276
C       2.11774653     -0.27783771      0.20788477
N       2.30983501      0.19211851     -0.93924753
H       0.23904237      2.20432434      0.56770931
H      -1.46514300      1.76257224     -0.02878239
H      -0.63777424     -1.70229708     -0.49337219
H      -1.39099276     -1.50291739      1.07900716
H      -2.25313451     -0.27955616     -1.30796981
H       2.91293441     -0.75857650      0.76842587
H       1.47485574      0.62919374     -1.32907991
