13
b3lypvtz=-190461.69065058
C      -0.20184373      1.93098051      0.26148597
N      -0.72464422      1.02750775     -0.44934928
C      -0.77116375     -0.30365782     -0.05487497
C      -2.15543925     -0.86837590      0.04769748
C       0.33147751     -1.06495201      0.11215985
C       1.66079158     -0.58663189     -0.01134063
N       2.75511748     -0.22862711     -0.09944457
H       0.20997058      1.74749441      1.25673885
H      -0.15597326      2.94514635     -0.12537788
H      -2.13592029     -1.93005548      0.28353626
H      -2.72045482     -0.34505549      0.82282347
H      -2.68823748     -0.71707612     -0.89256670
H       0.21969163     -2.12153620      0.31321915
