15
b3lypvtz=-216950.5281863
C      -2.08048872     -1.02239143      0.58682020
C      -1.28015526     -0.20608330     -0.09195252
C      -1.68396796      1.18858458     -0.47944791
C       0.08373071     -0.66584552     -0.54108578
C       1.24763270      0.05466264      0.11009992
O       1.18921065      0.94293480      0.91875170
O       2.42734548     -0.44182621     -0.33970971
H      -3.06844994     -0.71146374      0.90105010
H      -1.77628645     -2.02590402      0.85651551
H      -1.00971436      1.92171593     -0.03386693
H      -2.69975312      1.41065975     -0.15567296
H      -1.63456679      1.32073834     -1.56475964
H       0.20135884     -0.53630046     -1.62258611
H       0.22072410     -1.73223653     -0.35322794
H       3.12765410      0.05114617      0.11321607
