14
b3lypvtz=-250330.1744949
N       1.85277276      0.64007276     -0.05490550
C       1.45031617     -0.63010564     -0.31292685
O       2.22452971     -1.53085807     -0.58037802
C      -0.05595424     -0.88430870     -0.21890279
C      -0.97585705      0.16277890     -0.83541332
O      -2.30203097     -0.28706547     -0.95084778
O      -0.90674831      1.33308862     -0.02642117
H       2.83661336      0.84352890     -0.09040831
H       1.18416765      1.36206796      0.15585162
H      -0.31931442     -0.98816673      0.83903253
H      -0.23641887     -1.83844020     -0.70711816
H      -0.67492584      0.39406749     -1.86045709
H      -2.60207829     -0.57744449     -0.08072835
H      -1.47517167      2.00078469     -0.42627681
