14
b3lypvtz=-250261.68464707
C      -2.84128666      0.29600898      0.58144978
O      -2.16130103     -0.45203223     -0.42206019
C      -0.81847552     -0.62734375     -0.19215500
O      -0.14551208      0.63611132     -0.40857985
C       1.17845811      0.65336163     -0.21335786
N       1.83337311     -0.37967638      0.12885920
O       3.20751470     -0.06134409      0.26112899
H      -3.89865228      0.26559759      0.33014518
H      -2.69119678     -0.15284029      1.56937154
H      -2.50269524      1.33352817      0.60214327
H      -0.60054580     -0.95413291      0.83117747
H      -0.44167295     -1.35538229     -0.90923539
H       1.62672940      1.62825375     -0.37920480
H       3.58987802     -0.90935848      0.50413067
