13
b3lypvtz=-239476.00270096
O       0.14920070      2.39008864     -0.55240676
C      -0.40567269      1.35696037     -0.35246858
O      -1.47933123      0.83359521     -1.01624646
C      -1.40895975     -0.41753976     -0.24039937
C      -0.23940775      0.15292416      0.57713775
C       1.11450878     -0.54343768      0.52425135
O       1.51691703     -0.86374768     -0.79883081
H      -1.15547281     -1.24631346     -0.89599277
H      -2.34290966     -0.59046301      0.28812362
H      -0.49787503      0.39907612      1.60808984
H       1.06094244     -1.49048442      1.06323975
H       1.85769176      0.08233320      1.02807827
H       1.83026820     -0.06299169     -1.23247583
