16
b3lypvtz=-204443.62793902
N      -1.41117568      1.27579138      0.21108704
C      -1.24649635     -0.10255422      0.04636811
O      -2.39892162     -0.73007853     -0.34807774
C      -0.12971506     -0.80555744      0.26205972
C       1.19928630     -0.21222897      0.56180654
C       2.39101852     -0.55864876     -0.29387232
C       1.82353899      0.83276752     -0.34091159
H      -0.55551614      1.74282501      0.47375394
H      -1.83007056      1.72444674     -0.59482526
H      -3.14317754     -0.25195414      0.03782196
H      -0.22165972     -1.88385929      0.24548786
H       1.43565160     -0.09239727      1.61599165
H       3.34612552     -0.70667655      0.19114701
H       2.21479451     -1.19684591     -1.14890431
H       1.27923700      1.11644941     -1.23117278
H       2.39469624      1.63246601      0.11179918
