17
b3lypvtz=-191975.13174217
N       3.15799107      0.37471876     -0.08536637
C       1.90127723      0.02983370      0.35484689
N       1.02812071     -0.49600429     -0.39379467
C      -0.23418429     -0.89484664      0.19888155
C      -1.40442643     -0.21979772     -0.48154011
C      -1.87559822      1.12840504     -0.01601968
C      -2.72028145     -0.09625539      0.23385176
H       3.27216814      0.40124129     -1.08688142
H       3.63988531      1.09846414      0.41997394
H       1.74954392      0.20802457      1.42743570
H      -0.33843114     -1.97957093      0.08608652
H      -0.27201818     -0.68152081      1.27983325
H      -1.44882861     -0.39810052     -1.54878373
H      -2.21252603      1.84266143     -0.75454991
H      -1.37031128      1.57231609      0.83224804
H      -2.78232851     -0.46662780      1.24899756
H      -3.63114024     -0.21716593     -0.33618031
