13
b3lypvtz=-190412.13947793
C      -3.67314187     -0.34139575     -0.00000511
C      -2.52825697      0.02860559     -0.00000438
C      -1.21116723      0.54436823     -0.00000357
N      -0.18665611     -0.23648088     -0.00000065
N       1.02695832      0.31444675      0.00000060
C       2.16056844     -0.47547250     -0.00000078
C       3.41249607     -0.01650060     -0.00000376
H      -4.67646599     -0.68695243     -0.00000407
H      -1.09967539      1.63214540     -0.00000551
H       1.12280054      1.32513590     -0.00000437
H       1.92642156     -1.53106399      0.00000145
H       3.64310610      1.04103161     -0.00000630
H       4.23955753     -0.70803134     -0.00000357
