11
b3lypvtz=-213005.99433374
N      -1.41987310     -1.68231032      1.44180096
C      -1.07416960     -0.93006823      0.64437254
C      -0.53426507     -0.00191648     -0.35378400
C      -1.28286775      1.25626787     -0.38781188
N      -1.81894577      2.27196287     -0.42753929
C       0.98349557      0.25949639     -0.07833644
O       1.72685962     -0.92592247     -0.16861473
H      -0.61260474     -0.47975634     -1.33439777
H       1.08810394      0.75424886      0.89027986
H       1.34838924      0.93162115     -0.85304083
H       1.59587767     -1.45352330      0.62707159
