14
b3lypvtz=-227005.99342817
O      -2.31090973     -1.44470844      1.10268254
C      -1.46512380     -0.74886926      0.61290214
C      -0.71883173      0.54059265      1.00008754
C      -0.12454053      0.49743831     -0.43639388
C       1.38775959      0.43560600     -0.58527925
O       1.99246435     -0.51812729      0.26871843
N      -0.80357346     -0.80727863     -0.60044540
H       0.01045450      0.40981418      1.79590685
H      -1.37548272      1.37985293      1.21739776
H      -0.52942763      1.27371021     -1.09081434
H       1.64048268      0.24127705     -1.63643561
H       1.81601458      1.40412967     -0.32119465
H       1.56269958     -1.36703228      0.11272479
H      -1.08228568     -1.29620508     -1.43985692
