15
b3lypvtz=-214532.78891478
C       2.63283589      0.29834890     -0.10726975
N       1.58855505     -0.70696122     -0.04135570
C       0.38552352     -0.36087536      0.07105589
N      -0.68992450     -1.23254703      0.20302404
C      -1.91707975     -0.53425429     -0.14509337
C      -1.52633043      0.88490006      0.27256228
O      -0.10135068      0.92613070      0.09288746
H       3.20229930      0.16950221     -1.03106178
H       2.26972546      1.32860221     -0.06745643
H       3.33400226      0.14860857      0.71775246
H      -0.52579330     -2.16212929     -0.14683723
H      -2.77288698     -0.90835717      0.41602559
H      -2.14854518     -0.58422397     -1.21600217
H      -1.75681273      1.07082319      1.32391737
H      -1.97411794      1.66263247     -0.34194865
