14
b3lypvtz=-201298.17292108
C      -1.53276181      0.67109214     -0.01679427
C      -1.58333805     -0.85700736     -0.27202084
N      -0.20564461     -1.34067725     -0.06648091
C       0.53000857     -0.29030530     -0.03918286
N      -0.10097099      0.92321718     -0.21009663
C       1.98640054     -0.36324964      0.15648770
N       2.66892170      0.69925214      0.28358862
H      -2.14122798      1.24193505     -0.71690955
H      -1.84971233      0.92025945      1.00231791
H      -2.27730924     -1.38017029      0.38479925
H      -1.87861931     -1.07804041     -1.30276753
H       0.34582073      1.74091557      0.17432355
H       2.38224647     -1.37960810      0.19626858
H       3.65618633      0.49238683      0.42646701
