16
b3lypvtz=-227733.12380864
C      -2.48380835     -0.65318764     -0.42848096
C      -1.17044430      0.09378320     -0.28512846
C      -1.32472883      1.46305264      0.36012178
O      -0.32339638     -0.75477165      0.54268829
C       1.00447699     -0.63056674      0.44137772
N       1.58051024      0.19973888     -0.32764148
O       2.98886077      0.05900573     -0.22047696
H      -3.17252802     -0.08243260     -1.05265788
H      -2.32747085     -1.62805953     -0.88963088
H      -2.94848288     -0.80380070      0.54716676
H      -0.68157555      0.19529244     -1.25506020
H      -0.36006682      1.95632718      0.46207662
H      -1.96668171      2.09401439     -0.25694086
H      -1.78194519      1.36958578      1.34655542
H       1.54261956     -1.32111416      1.08431534
H       3.30553133      0.73757679     -0.82330626
