18
b3lypvtz=-205216.12212771
C       2.11915154      0.87377552      0.63469455
C       1.29025842     -0.07128635      0.18519208
N       1.59261433     -1.01637737     -0.80203199
O       0.02533794     -0.18455976      0.68707281
C      -1.08914179     -0.15467627     -0.24564452
C      -2.29236026     -0.65134754      0.53507809
C      -1.27330340      1.25044659     -0.79931343
H       3.16087485      0.88433951      0.34993062
H       1.75581500      1.63508893      1.30562183
H       1.31630764     -1.95644132     -0.54961276
H       2.55590765     -0.98745173     -1.10016871
H      -0.87066939     -0.84001666     -1.06715967
H      -3.17625576     -0.67249168     -0.10379132
H      -2.49424234      0.00589295      1.38229916
H      -2.11742732     -1.65716726      0.91713354
H      -0.37300711      1.58934317     -1.31178559
H      -2.09849687      1.26963657     -1.51355661
H      -1.49542815      1.95233069      0.00642594
