15
b3lypvtz=-191195.54262389
N      -3.22193794      0.09766037      0.02654953
C      -1.97485958      0.35715672      0.00143611
C      -0.87122962     -0.59691958     -0.00709304
C       0.41015298     -0.23949210     -0.04971785
C       1.17269965      1.07041098     -0.05448818
N       2.42108757      0.30545865      0.22859139
C       1.72399359     -0.98583153     -0.03667981
H      -3.37830681     -0.91344579      0.04043752
H      -1.69345015      1.41229469     -0.01620606
H      -1.13084889     -1.65196402      0.02167483
H       1.15266855      1.57320748     -1.02835996
H       0.91384743      1.79938546      0.71632141
H       3.18214540      0.50435152     -0.40724774
H       1.85781867     -1.73590356      0.74632141
H       1.96114514     -1.44641328     -1.00312755
