15
b3lypvtz=-191210.49156246
C      -1.62710815      0.65833708     -0.65733395
C      -0.97760743      0.66835497      0.71158261
C      -1.19666642     -0.64240476     -0.01821609
N       0.12037334     -1.18554611     -0.29255142
C       1.06408964     -0.21508298      0.10089340
C       0.50588716      0.81847658      0.75418304
N       2.38179790     -0.44794086     -0.27993763
H      -2.69470434      0.82646470     -0.70774074
H      -1.05748817      1.04896666     -1.49057882
H      -1.57758204      0.93965612      1.56971096
H      -1.94887795     -1.35999501      0.27844682
H       0.25795184     -1.54177287     -1.22953521
H       1.03578581      1.61600055      1.24913443
H       3.03253475      0.21449661      0.11391992
H       2.68161402     -1.39801067     -0.10197732
