15
b3lypvtz=-170276.61416826
C      -0.91159606      1.84517985      0.11287799
C      -0.74329578      0.54800539     -0.06630495
C      -1.49195069     -0.69887542      0.36307910
C      -0.15964843     -1.48720844      0.21403909
C       0.42170168     -0.28595631     -0.60929179
C       1.78424965      0.14976798     -0.38250441
C       2.91148852      0.51203600     -0.18397822
H      -0.16146763      2.55779679     -0.20598705
H      -1.79720458      2.23720062      0.59734710
H      -2.24058611     -1.01073805     -0.36887139
H      -1.95706741     -0.68053061      1.34773268
H       0.35958553     -1.59778495      1.16333651
H      -0.19439792     -2.44730325     -0.29615641
H       0.27219869     -0.47283399     -1.67783430
H       3.90799053      0.83124439     -0.00748396
