13
b3lypvtz=-242067.22164776
C       2.23601918      0.62118384      0.32209150
C       1.17983917     -0.10643752     -0.00527395
F       1.32396941     -1.41007072     -0.30559836
C      -0.23074502      0.37446261     -0.06767745
N      -0.61783800      1.55814591     -0.30631492
O      -1.08982544     -0.62464087      0.18148868
C      -2.48283252     -0.29014971      0.13754317
H       3.22249498      0.18276842      0.33594625
H       2.12367081      1.65816569      0.59558759
H       0.16504808      2.16824234     -0.51524118
H      -2.72111638      0.45839715      0.89228723
H      -2.74984518      0.10435490     -0.84211785
H      -3.00890710     -1.21918305      0.33680727
