15
b3lypvtz=-191223.57303911
C      -1.53533986      1.65552588     -0.21149757
C      -0.89722244      0.53055420      0.12006894
C      -1.59140725     -0.72331836      0.04388254
N      -2.11553671     -1.74953227      0.00086568
C       0.54588233      0.46768311      0.55951351
C       1.46888135     -0.22042785     -0.47084705
N       2.86647083     -0.33970252     -0.07613456
H      -2.56541347      1.65118193     -0.53832328
H      -1.03091060      2.61100770     -0.15608123
H       0.89922548      1.48458687      0.74232335
H       0.61262141     -0.07602181      1.50633817
H       1.09027740     -1.22184494     -0.68434970
H       1.42387084      0.33427991     -1.41096224
H       2.96363145     -0.90151113      0.76124358
H       3.27147524      0.56745928      0.12240485
