14
b3lypvtz=-203685.90769533
C      -2.26818394     -0.32366553     -0.50728587
C      -0.87577270     -0.71975155     -0.10951078
O      -0.42051257     -0.36876991      1.20242265
C       0.24491989      0.23179897      0.08195291
C       0.13086968      1.72975079     -0.07107879
C       1.58606473     -0.28492545     -0.15354569
N       2.65018116     -0.67043895     -0.36193871
H      -2.38758313     -0.40676356     -1.58918170
H      -2.51328610      0.69098154     -0.20259286
H      -2.98607125     -0.99963376     -0.03965268
H      -0.59045263     -1.72791369     -0.40030763
H       0.42298513      2.03329861     -1.07708503
H       0.79287950      2.22531982      0.63935816
H      -0.88641676      2.05979366      0.11998904
