18
b3lypvtz=-205209.86811729
C      -2.35893136     -1.00840023     -0.31336451
N      -1.64437140      0.02463146     -0.21923241
C      -0.69832158      0.14069301      0.87924618
C       0.62161509      0.73075387      0.35976164
O       0.36180942      1.98502060     -0.26111404
C       1.39358177     -0.19848555     -0.58329796
C       1.96238264     -1.45055007      0.08524106
H      -2.30874676     -1.84321027      0.39622354
H      -3.07089265     -1.09518157     -1.13125726
H      -1.11540244      0.85738777      1.59128849
H      -0.53975346     -0.81072529      1.40239269
H       1.25202757      0.95175761      1.22593939
H      -0.41844685      1.85608863     -0.81636644
H       2.20629722      0.39305168     -1.00906141
H       0.74403801     -0.47702739     -1.41795770
H       1.17886298     -2.11216710      0.45912771
H       2.60528340     -1.19079032      0.92969826
H       2.56369740     -2.02702485     -0.61891422
