13
b3lypvtz=-213757.91603221
N      -2.50299732     -0.02876253      0.92044450
C      -1.24388240      0.08254033      0.86759909
C      -0.38509785      0.01558648     -0.36564554
N      -0.69134300     -0.60136601     -1.43277244
C       0.96674686      0.68717448     -0.26742554
C       2.03177808     -0.32964543      0.12079668
O       2.72230655     -0.24475399      1.09922012
H      -2.90749633     -0.16580281     -0.01122282
H      -0.71057306      0.26364089      1.80257608
H      -1.60003235     -1.06411618     -1.35245957
H       1.22481414      1.06786203     -1.25755910
H       0.97609077      1.49868680      0.45849948
H       2.11968590     -1.18104407     -0.58195092
