16
b3lypvtz=-204416.623803
C       1.07816214      1.33979058      0.07193189
C       1.07453029      0.12460060      0.97994150
C       0.04916354      0.27685340     -0.11731581
O       0.60666480     -0.81846546     -0.87597286
C       1.56123098     -1.08038460      0.19766499
C      -1.43304933      0.43276780     -0.15729912
N      -2.09490727     -0.78929551      0.30870366
H       0.73397949      2.25257383      0.54122855
H       1.85637527      1.46716781     -0.67212711
H       0.95845470      0.18612521      2.05056380
H       1.33633589     -2.03400699      0.67759758
H       2.59284398     -1.07260013     -0.16274864
H      -1.71103099      1.26084677      0.49859558
H      -1.71217468      0.72703643     -1.18106306
H      -3.09866829     -0.70812769      0.19966238
H      -1.79791049     -1.56488205     -0.27284850
