17
b3lypvtz=-191979.82762147
C       3.32972839      0.20685631      0.00000318
C       2.15820288     -0.43194698     -0.00001279
N       0.93298942      0.21674621     -0.00000149
C      -0.12435394     -0.50790625     -0.00002594
N      -1.38633133     -0.01262797     -0.00003997
C      -1.63739376      1.41571182     -0.00000535
C      -2.53772835     -0.88612314      0.00000722
H       3.37299775      1.28746697      0.00002409
H       4.25904155     -0.34367774     -0.00000570
H       2.14644701     -1.52636789     -0.00003626
H      -0.08736993     -1.60311571     -0.00004234
H      -2.20951771      1.70485877      0.88652501
H      -2.20975606      1.70484290     -0.88638490
H      -0.68455230      1.93554696     -0.00013173
H      -2.21614606     -1.92608792     -0.00007011
H      -3.15994911     -0.71815930     -0.88490349
H      -3.15982345     -0.71825106      0.88502558
