19
b3lypvtz=-195150.29140197
C       3.10353145      0.18983318     -0.04321036
C       1.90078840      0.14834847      0.90859227
C       0.60213674      0.44544529      0.21902271
C      -0.47662999     -0.33816541      0.21368752
C      -1.76368757     -0.01500060     -0.49051464
C      -2.94927999      0.21962758      0.45783667
O      -0.46290615     -1.52699804      0.91491542
H       3.00742556     -0.56355195     -0.82685372
H       4.03605591      0.00389881      0.49308685
H       3.18853625      1.16419554     -0.52985429
H       2.06348483      0.87861930      1.70970850
H       1.84270941     -0.82784864      1.39019979
H       0.53192440      1.37769438     -0.32930270
H      -2.00731196     -0.83524418     -1.17830340
H      -1.60806090      0.86785123     -1.11026804
H      -3.86162002      0.41781315     -0.10633582
H      -2.75761430      1.07265174      1.10943624
H      -3.13854980     -0.64522748      1.09655392
H      -1.25093223     -2.03394238      0.70095055
