18
b3lypvtz=-205203.63503431
N      -2.62895300     -0.35129894     -0.23690979
C      -1.32081488     -0.75728415      0.29718704
C      -0.25376033      0.23265822     -0.18167701
O      -0.67193504      1.55700197      0.11525851
C       1.08526521     -0.01620628      0.45708723
C       2.03739353     -1.01535940     -0.14759368
C       2.34105041      0.45706433     -0.21711652
H      -2.73535580     -0.64479747     -1.20090375
H      -3.38716582     -0.76793022      0.28685604
H      -1.37453744     -0.70253734      1.38640922
H      -1.02702739     -1.77814907      0.02750912
H      -0.14291538      0.11536393     -1.27326301
H      -1.63281978      1.55045148     -0.01380143
H       1.06986688      0.04889914      1.53895519
H       1.73907087     -1.51173269     -1.06189332
H       2.62276935     -1.63250206      0.51950733
H       3.13609711      0.84739929      0.40230216
H       2.23760251      0.95148826     -1.17340934
