18
b3lypvtz=-181912.09571773
C       3.76504653     -0.26969591     -0.00003759
C       2.41237825      0.36253835     -0.00007752
C       1.24975444     -0.29533163      0.00008045
C      -0.04093729      0.37470609      0.00003054
N      -1.13495844     -0.26906710      0.00018079
C      -2.38209193      0.49395881      0.00012003
C      -3.58842016     -0.43414340     -0.00013295
H       4.34225049      0.04077696     -0.87585909
H       4.34232743      0.04105311      0.87563531
H       3.70175972     -1.35768623      0.00013677
H       2.38962862      1.44986170     -0.00024833
H       1.22061567     -1.37985837      0.00025637
H      -0.01064757      1.47544238     -0.00016847
H      -2.41641209      1.14810542      0.87938557
H      -2.41621900      1.14836980     -0.87895829
H      -3.57737911     -1.07663520     -0.88129771
H      -3.57756351     -1.07686005      0.88086966
H      -4.51901106      0.13635527     -0.00015953
