17
b3lypvtz=-194355.35640146
C      -2.22332007      0.82395939     -0.26952621
C      -1.24466546     -0.31223887     -0.44039428
C      -0.81104896     -1.16074244      0.74970902
C       0.14671361     -0.23182933      0.08537144
C       0.93336634      0.94635447      0.64639950
C       2.09851825      0.36092335     -0.17319707
O       1.26732023     -0.72039058     -0.66668607
H      -3.25280627      0.45905876     -0.26055869
H      -2.13503125      1.55147162     -1.07972031
H      -2.05600991      1.35327751      0.67080064
H      -1.32745979     -0.85829072     -1.37371760
H      -1.18646326     -0.89626586      1.73136102
H      -0.66257964     -2.21993153      0.58689229
H       0.58904464      1.92887952      0.32775328
H       1.07343086      0.94329055      1.72567314
H       2.94231710     -0.01601060      0.40801130
H       2.46811158      0.98621473     -0.98814340
