18
b3lypvtz=-205191.12718289
C      -1.39373338      0.04065776     -1.26228532
N      -0.59565821     -0.28000945     -0.08461175
C      -1.42680555     -0.43652677      1.10708900
C       0.47868266      0.64868416      0.14776830
C       1.69459449      0.57926547     -0.75255544
C       1.76185417      0.03727368      0.64806991
O       1.80166128     -1.34291912      0.85945917
H      -2.12384240     -0.75090292     -1.43660993
H      -0.75004974      0.11313629     -2.13746624
H      -1.94004693      0.99137081     -1.15732776
H      -2.17267721     -1.21361418      0.93598716
H      -1.95567538      0.49217215      1.37496725
H      -0.80564934     -0.73326127      1.95117752
H       0.19476163      1.63345779      0.52359468
H       1.67839493     -0.15535980     -1.54667725
H       2.20425154      1.50270047     -0.99162858
H       2.34503913      0.56828652      1.38766941
H       1.00489832     -1.69441156      0.43337986
