16
b3lypvtz=-204466.62668207
C      -2.69867706     -0.37470472     -0.15038623
C      -1.22940356     -0.65038650     -0.15396715
C      -0.22525061      0.20709950      0.05925063
C      -0.37725268      1.68207615      0.32002895
C       1.17400507     -0.30848735      0.01066886
N       1.62749786     -1.44427228      0.34900973
O       2.04227295      0.62499439     -0.45996427
H      -3.13364738     -0.60741803     -1.12653207
H      -3.20496185     -1.02015266      0.57311748
H      -2.94503874      0.65689618      0.08960495
H      -0.96339475     -1.67937307     -0.37626305
H      -1.41926919      1.97470166      0.41917885
H       0.06856511      2.26224987     -0.48912723
H       0.14617242      1.97026970      1.23407746
H       0.89898529     -2.03893440      0.72931877
H       2.91615813      0.20946456     -0.43259067
