16
b3lypvtz=-204436.49669545
C       2.00217932      0.39150845      0.06769171
C       0.80596807     -0.49838088     -0.17553950
N       0.82392414     -1.76778202     -0.18058611
C      -0.48928135      0.22910885     -0.42289322
C      -1.78960917     -0.57968336     -0.54551764
O      -2.39641194      0.14631507      0.55679833
C      -1.18198810      0.87589799      0.80711886
H       2.89208148     -0.19107239      0.30377054
H       2.20763061      1.00128437     -0.81597517
H       1.81005564      1.08470491      0.89062710
H       1.76101251     -2.12404835      0.00929899
H      -0.34675605      0.94780444     -1.23180913
H      -1.67441773     -1.64034920     -0.32641850
H      -2.35104084     -0.44404699     -1.47171809
H      -1.33423866      1.95694772      0.76234243
H      -0.73910793      0.61199139      1.77280942
