14
b3lypvtz=-224611.17793114
N      -2.05919551      0.92717618     -0.26997448
C      -0.63184276      0.84209597     -0.17098747
C       0.00731932     -0.18018144     -0.76245116
N      -0.60307280     -1.08163648     -1.62687030
N       1.38901069     -0.39354204     -0.61179082
C       2.09682613     -0.29333812      0.55610447
O       3.29791104     -0.41942835      0.63169479
H      -2.49872398      0.95791375      0.64304782
H      -2.34952342      1.76427088     -0.76260428
H      -0.05920661      1.60841114      0.33913353
H      -0.35289658     -2.04686462     -1.46208036
H      -1.60517693     -0.94057691     -1.64295767
H       1.92093103     -0.64516908     -1.43387955
H       1.44774039     -0.09893087      1.42391549
