21
b3lypvtz=-172598.31244336
C       2.44336755     -0.44167271     -0.24016644
C       1.25467583     -0.36575264      0.71995010
C      -0.03453081      0.20219659      0.12064729
C       0.13254107      1.64931579     -0.34283845
C      -1.30650169      0.03188775      1.01128676
C      -2.08668475     -0.48902796     -0.22114442
C      -0.73925444     -0.68150031     -0.96034902
H       2.19250691     -1.01273870     -1.13690717
H       3.29414388     -0.93330702      0.23434511
H       2.77532365      0.54694491     -0.55935850
H       1.04112626     -1.37050422      1.09729131
H       1.52940987      0.23369266      1.59521590
H       0.46044283      2.28683141      0.48252225
H      -0.80926703      2.05416787     -0.71861367
H       0.86642292      1.73377457     -1.14619718
H      -1.68486146      0.93135013      1.49866540
H      -1.17114434     -0.73979260      1.77054217
H      -2.70925987      0.27919957     -0.67879191
H      -2.69868215     -1.37816244     -0.07561040
H      -0.39650782     -1.71689192     -0.92738287
H      -0.68324842     -0.33396673     -1.99251223
