17
b3lypvtz=-215280.74073731
C       2.14038044     -1.24977661      0.39360817
N       1.20041876     -0.62982407     -0.54221477
C       0.53514668      0.54291455     -0.18189555
N       1.40962719      1.53381945      0.27750815
C      -0.79946286      0.73445685     -0.26936142
C      -1.83669124     -0.31312150     -0.48937573
O      -2.76338671     -0.41828153      0.60414407
H       2.61823758     -2.09409378     -0.10173084
H       2.91392761     -0.54142698      0.67712077
H       1.65875843     -1.60832362      1.31164274
H       0.57292972     -1.30191576     -0.95382465
H       0.95340724      2.41118366      0.47282692
H       2.22251598      1.65943891     -0.31071980
H      -1.17102740      1.74436158     -0.13705258
H      -2.46281848     -0.08226720     -1.35424737
H      -1.38290383     -1.29403419     -0.68218828
H      -2.24576611     -0.36834776      1.41452819
