10
b3lypvtz=-223042.03998344
N       0.36137692      2.21180928      1.44555336
C       0.22498525      1.31596412      0.73441163
C      -0.00163689      0.17713176     -0.10775641
C      -1.10451643     -0.76218127      0.26039531
N      -1.44186342     -1.80813593     -0.36338106
N       0.69328339     -0.07248117     -1.15699369
O       1.67326160      0.84822684     -1.39922660
H      -1.64959511     -0.48535730      1.16150813
H      -0.85234238     -1.95130758     -1.18655168
H       2.09704707      0.52643124     -2.20425898
