16
b3lypvtz=-181147.45901442
C      -2.53882229     -0.51820070      0.01953412
C      -1.26789847     -0.10141924      0.03388133
C      -0.74844641      1.25514911      0.09392741
C       0.58895234      1.21193973     -0.07384351
N       1.07562414     -0.06408313     -0.29106275
C       2.40305501     -0.44097369      0.14245844
C      -0.03595263     -0.99544054     -0.03893071
H      -3.35858156      0.18513356      0.07700935
H      -2.79434626     -1.56749185     -0.04637505
H      -1.34542374      2.14805003      0.18026129
H       1.27916381      2.04352942     -0.09447260
H       2.46385410     -0.61148357      1.22778324
H       3.11084953      0.34463231     -0.12194294
H       2.71414160     -1.35606833     -0.36302435
H       0.12332255     -1.50790935      0.91949919
H      -0.10104170     -1.75501176     -0.81923146
