14
b3lypvtz=-180369.5820934
C      -1.60254579      0.77569468     -0.31442685
C      -0.77915497     -0.50005462     -0.45277572
C       0.43923853     -0.53718783      0.51211213
C       1.41056567      0.52724325      0.24631594
C       2.18996971      1.40802382      0.02003488
C       1.08803562     -1.85599819      0.46559441
N       1.56092200     -2.90315824      0.42306003
H      -2.00240761      0.88249402      0.69609778
H      -2.44633687      0.75629530     -1.00436765
H      -1.00674899      1.66078326     -0.53694540
H      -1.39420678     -1.37456125     -0.23565373
H      -0.41066803     -0.61232758     -1.47291680
H       0.06427705     -0.40976411      1.53414127
H       2.88906044      2.18251745     -0.17646418
