15
b3lypvtz=-214510.80775992
C       2.99793822     -0.24299926      0.00004597
O       1.71788354      0.36131731      0.00003254
C       0.66201654     -0.56090605     -0.00003571
C      -0.66061749      0.16782167     -0.00008083
N      -0.80220203      1.42553121     -0.00010810
C      -1.87968337     -0.70810559     -0.00006161
N      -3.07393077     -0.29339451      0.00009929
H       3.14632653     -0.86394556      0.89089897
H       3.14638281     -0.86386360     -0.89085479
H       3.73130175      0.56033971      0.00010605
H       0.70710538     -1.21907162      0.88213184
H       0.70718337     -1.21903258     -0.88222862
H       0.10814804      1.88639313     -0.00008621
H      -1.70407486     -1.78620664      0.00001520
H      -3.06668566      0.73283837      0.00009500
