14
b3lypvtz=-203673.76903912
C      -1.73088338      0.21556273     -0.33067930
C      -0.38852133     -0.11203891     -0.85709211
C      -0.93804402     -0.84960434      0.40542343
C       0.16842984     -0.22628943      1.18464466
O       0.68630270     -0.49937747      2.23362657
C       0.68211477      0.62085622     -0.03318782
N       2.05225318      0.35912994     -0.42927181
H      -1.91175522      1.17586493      0.13794998
H      -2.57799372     -0.17659642     -0.87710798
H      -0.21043010     -0.54996755     -1.82733111
H      -1.31721727     -1.85513864      0.52007066
H       0.53399441      1.70013774      0.03058823
H       2.68924810      0.82908882      0.20367053
H       2.26250201     -0.63162760     -0.36130392
