17
b3lypvtz=-194358.68603575436
C      -1.31333057      1.57191509      0.04598545
C      -0.97869548      0.12664245     -0.05996384
C      -1.68560865     -1.00780667     -0.05015830
C      -0.48631469     -1.92648941     -0.17148204
C       0.34473006     -0.61259150     -0.27431324
O       1.35526287     -0.51307457      0.70660227
C       2.22023750      0.59125325      0.53518798
H      -2.39135477      1.72323628      0.11888954
H      -0.85104147      2.01960476      0.93010016
H      -0.94756126      2.12947996     -0.82118925
H      -2.74839497     -1.21009862      0.00034200
H      -0.24163237     -2.49571448      0.72556935
H      -0.44431496     -2.58833860     -1.03973746
H       0.77834003     -0.44975024     -1.27086004
H       2.99240806      0.51711211      1.29918994
H       1.70073502      1.54869294      0.65380378
H       2.69653565      0.57592728     -0.45336388
