13
b3lypvtz=-216186.2611802
C      -1.82778982      0.01445045     -0.11448511
C      -0.34809912      0.18518944      0.06246135
C       0.38327830      1.27821117     -0.12515231
O       1.74383834      1.11411849      0.12451638
C       1.95073054     -0.19611697      0.51240492
O       3.03194109     -0.61558526      0.78892029
C       0.59978643     -0.89714931      0.50060886
H      -2.13017084     -1.00647026      0.11721055
H      -2.39451414      0.67799252      0.54136987
H      -2.14067903      0.22132411     -1.13965948
H       0.10722734      2.27202445     -0.43753393
H       0.63809843     -1.75288780     -0.17857958
H       0.38635248     -1.29510100      1.49620194
