18
b3lypvtz=-181878.00355472
C      -0.94340640      1.80626873     -0.25397855
C      -0.48455595      0.38928590     -0.09481847
C      -1.19523274     -0.64537904      0.73939817
C      -0.95549218     -0.90901714     -0.72652373
C       0.50986143     -1.27793399     -0.93252493
N       0.91777644      0.03469645     -0.35713067
C       1.87235134      0.06106209      0.73440060
H      -0.55755923      2.43719228      0.55163410
H      -0.59329557      2.21841187     -1.20176762
H      -2.03223752      1.86877071     -0.22571352
H      -0.67029930     -1.22921080      1.48736213
H      -2.21568619     -0.39972560      1.00428411
H      -1.75588528     -1.06611677     -1.43445399
H       0.85466336     -2.15500078     -0.37272741
H       0.81926749     -1.37708688     -1.97425017
H       1.98393869      1.08549575      1.09378964
H       1.59813595     -0.57357229      1.59185885
H       2.84765567     -0.26814050      0.37116143
