11
b3lypvtz=-215333.99543323
O       1.22025598     -0.14344875      0.79063243
C       2.23065894     -0.12844528      0.15499748
C       3.55793116     -0.86217383      0.09079709
C       3.56753874     -0.68154668     -1.46936342
O       4.89611491     -0.08871334     -1.52134444
C       4.26133401      0.47481288     -0.33865125
C       2.84736803      0.63418998     -1.00353695
H       3.98820677     -1.67760255      0.66079043
H       3.26122440     -1.38694245     -2.23502666
H       4.80347381      1.18374732      0.27871554
H       2.50259324      1.45092270     -1.62721026
