16
b3lypvtz=-204458.02567954
C      -2.81087350     -0.75705300     -0.00358534
C      -1.51942199     -0.00637885      0.00127269
O      -1.62946812      1.37041323      0.00905318
C      -0.30204446     -0.56878875      0.00102709
C       0.95372549      0.14675484      0.00774091
C       2.15317763     -0.45711084      0.00977952
N       3.39072541      0.17502039     -0.08288498
H      -3.41312737     -0.51470321      0.87945823
H      -2.63958480     -1.83160928     -0.00967269
H      -3.41143242     -0.50568627     -0.88539260
H      -2.55815194      1.61514774     -0.01470218
H      -0.26616333     -1.65147756     -0.00400181
H       0.90679928      1.23078565      0.00053955
H       2.21690247     -1.54028763      0.01849461
H       3.37924571      1.16426509      0.11693337
H       4.14609993     -0.29098156      0.39490846
