15
b3lypvtz=-216923.89732429
C       2.26672564     -0.94250795     -0.20575705
C       0.80704979     -1.11228291      0.04543102
C      -0.13424872     -0.17211647      0.22362314
C       0.10407576      1.29217279      0.19020793
O       1.15338757      1.85810659     -0.02249978
C      -1.56638495     -0.55846383      0.47329981
O      -2.34280282     -0.15114240     -0.65678879
H       2.56676627      0.09786246     -0.24620468
H       2.83799742     -1.45734063      0.57310281
H       2.53366588     -1.43184439     -1.14763845
H       0.46833162     -2.14516976      0.08951335
H      -0.80854726      1.88823265      0.39155116
H      -1.64050860     -1.63865777      0.63476127
H      -1.93190143     -0.06013045      1.38050456
H      -3.27305418     -0.15893892     -0.41205730
