14
b3lypvtz=-226964.57844922345
C      -1.59558216     -1.06342232     -0.03326185
C      -1.06017284      0.11309773      0.30729705
C      -0.01803681     -0.11548847     -0.75820787
O      -0.66872832     -1.39743629     -1.05750481
C       1.41018815     -0.31924835     -0.30778443
O       1.86241787      0.94381097      0.18723300
N      -1.29581992      1.20755957      1.12333620
H      -2.42402109     -1.70891064      0.20752116
H      -0.08108441      0.55476645     -1.61637542
H       2.02094462     -0.65899635     -1.15119283
H       1.42877485     -1.08720769      0.47157299
H       2.78754437      0.86727681      0.43488203
H      -1.92562753      1.02609691      1.89113816
H      -0.44079678      1.63810165      1.44767487
