16
b3lypvtz=-181155.34855299
C      -2.48612668     -0.54100949     -0.13226269
C      -1.21108005     -0.13182878     -0.03973078
C      -0.72000432      1.24597671     -0.11466799
C       0.58681624      1.27935077      0.14904803
C       1.10781212     -0.10592901      0.43036680
C       2.32326777     -0.50808460     -0.40866278
N      -0.07429846     -0.92301076      0.14159147
H      -3.27474329      0.17856378     -0.28837255
H      -2.76169727     -1.58382555     -0.06090572
H      -1.35684806      2.08537747     -0.34840614
H       1.22115815      2.15324452      0.16632230
H       1.38586151     -0.18253939      1.49346264
H       2.09255749     -0.43091421     -1.47128563
H       2.61474975     -1.53773605     -0.19456548
H       3.17654465      0.13567424     -0.18490004
H      -0.17726255     -1.80003568      0.62360357
