13
b3lypvtz=-239461.03991953
O       1.95846346     -1.69568700     -0.27784690
C       2.14003486     -0.51689911     -0.40082435
O       1.21985030      0.44261709     -0.21165069
C      -0.07892001     -0.00656584      0.20408991
C      -1.08330365      1.13870277      0.33366939
O      -1.99459739      0.48251182     -0.57901770
C      -1.01518019     -0.53945403     -0.88786196
H       3.09053881     -0.05118229     -0.68928877
H       0.02652160     -0.65372132      1.07042759
H      -1.52780719      1.29389288      1.31774539
H      -0.71167724      2.08715494     -0.06207382
H      -1.40786456     -1.54593702     -0.74399967
H      -0.61595881     -0.43543290     -1.89996842
