14
b3lypvtz=-201288.50185802
C      -0.03977772     -1.76211516      0.15894523
C      -0.09289942     -0.44292164     -0.03644880
C       1.15832541      0.37597884     -0.19085335
N       2.27995162     -0.13309950      0.14792800
N       0.93334004      1.64682535     -0.66478314
N      -1.29484703      0.26156985     -0.25009028
C      -2.28078702      0.09129154      0.52316306
H       0.91972715     -2.24898929      0.23914169
H      -0.93956380     -2.35971592      0.19702467
H       3.05007863      0.51425128     -0.01163705
H       0.03938389      1.83054368     -1.08987415
H       1.72087064      2.17398223     -0.99970792
H      -3.21625224      0.60183970      0.31082984
H      -2.23755013     -0.54944095      1.40869290
