15
b3lypvtz=-193565.57221206
C       0.65643590      1.47199870     -0.38741581
C      -0.69848966      1.51305675      0.43132938
C      -0.78026018     -0.00914189      0.07161300
C       0.72816483     -0.04686857      0.00861768
C       0.67990444     -1.53214529     -0.43741791
C      -0.68822667     -1.52262525      0.40468636
O      -1.20554797     -2.31540144      1.12354575
H       1.47224506      2.10876193     -0.04993398
H       0.47357261      1.63079792     -1.44984923
H      -0.51928310      1.69830308      1.48911285
H      -1.49300374      2.16171114      0.06861220
H      -1.10945959     -0.03067888     -0.97610769
H       1.10314671     -0.05334546      1.03687782
H       0.48216377     -1.68988781     -1.49696728
H       1.44903759     -2.21713491     -0.08740316
