12
b3lypvtz=-226213.10090196
N       2.47725072      1.56181491     -0.19454347
C       1.89895278      0.46091840      0.02419412
O       2.57275101     -0.68943215      0.33726450
C       0.46953366      0.32481474     -0.03912348
C      -0.72194960      0.16187497     -0.07514813
C      -2.17036161     -0.02270757     -0.15208396
O      -2.55333991     -1.29754624     -0.65190515
H       3.48695482      1.46018346     -0.09245009
H       1.94281270     -1.40407004      0.48983845
H      -2.60319846      0.79015083     -0.74639324
H      -2.59921968      0.04801785      0.84878427
H      -2.20038643     -1.39401915     -1.54243382
