14
b3lypvtz=-224579.8213643
C      -1.61019348      1.45198857     -0.07166205
C      -1.49244371      0.12255679     -0.00435368
N      -2.55961876     -0.79066938     -0.08078348
N      -0.28830532     -0.58456253      0.12326594
N       0.88116510      0.13833240      0.18703170
C       1.96078562     -0.43913781     -0.12195942
O       3.15620731      0.18478719     -0.02933816
H      -2.58671909      1.91178320     -0.04596516
H      -0.74007438      2.08246545     -0.13759367
H      -3.45205360     -0.32987111     -0.17359767
H      -2.57511255     -1.44151388      0.69459111
H      -0.26495864     -1.42343901     -0.44880186
H       2.06302727     -1.46401929     -0.47572164
H       2.99085923      1.08017341      0.29878802
