20
b3lypvtz=-182659.66632826
C       1.88540831     -1.26364579      0.03277816
C       1.09199977     -0.00000007     -0.31545856
C       1.88540842      1.26364554      0.03277838
C      -0.26837674     -0.00000008      0.37002730
C      -1.32991011      1.05346175     -0.03483106
N      -2.36909684      0.00000006      0.05982345
C      -1.32991021     -1.05346170     -0.03483131
H       2.08909969     -1.31099661      1.10576901
H       2.84495637     -1.28224266     -0.48751722
H       1.34070453     -2.16868803     -0.24248068
H       0.91662833      0.00000004     -1.39797253
H       1.34070474      2.16868787     -0.24248034
H       2.08909975      1.31099616      1.10576925
H       2.84495650      1.28224239     -0.48751695
H      -0.13385496     -0.00000022      1.45453762
H      -1.15887768      1.42552190     -1.05344157
H      -1.48661352      1.90619680      0.62822781
H      -3.05604087      0.00000018     -0.68385219
H      -1.15887780     -1.42552162     -1.05344192
H      -1.48661371     -1.90619690      0.62822735
