15
b3lypvtz=-214555.71159113
C       2.48231122     -0.74359157      0.09471083
C       1.15030801     -0.05543017     -0.00639183
N       1.23816077      1.30772889     -0.20664282
C      -0.00341671     -0.75216459      0.12020684
C      -1.38051918     -0.25775019      0.01308324
N      -1.58397473      1.11102616      0.21891046
O      -2.31718912     -0.98553116     -0.27159291
H       2.36508999     -1.79972904      0.32083593
H       3.03623062     -0.65034313     -0.84388030
H       3.08972661     -0.28471086      0.87883471
H       0.42383245      1.76156042     -0.59388728
H       2.11243702      1.64500884     -0.57389807
H       0.06136201     -1.82322760      0.23625692
H      -1.01354305      1.55218382      0.92568578
H      -2.56414590      1.34657319      0.27802150
