17
b3lypvtz=-217697.89763612
C       2.79140564      0.18828661     -0.58884483
C       1.54160284     -0.07230864      0.24205939
C       0.24409411      0.02918581     -0.54351787
O       0.23172216      0.22487798     -1.73876043
C      -1.04230216     -0.13234847      0.24906398
C      -2.30211477     -0.12114827     -0.60986676
O      -3.47730820     -0.35274481      0.16317321
H       2.77589661      1.19129259     -1.01453553
H       2.86211871     -0.51355491     -1.41880222
H       3.68745565      0.08899441      0.02437073
H       1.57107393     -1.07056208      0.69279127
H       1.47779578      0.61793765      1.08988613
H      -1.08165038      0.66991907      0.99585320
H      -0.99512906     -1.06175266      0.82447806
H      -2.25994035     -0.92727735     -1.34066193
H      -2.37002058      0.81427691     -1.17133989
H      -3.65469993      0.42692616      0.69745726
