14
b3lypvtz=-203661.2656995
O       2.81860561     -0.38009812     -0.18923286
C       2.18024601      0.40047664     -0.84746283
N       0.76687738      0.53706182     -0.88903316
C       0.12643751      0.19399335      0.43591443
C      -1.35137093      0.54250517      0.27731538
C      -1.41783175     -0.49940475     -0.89435878
C       0.06421254     -0.78101860     -0.66043528
H       2.66262100      1.12653916     -1.52081803
H       0.75176840      0.19743275      1.31572012
H      -1.94809835      0.24038938      1.13661426
H      -1.56332772      1.58039978      0.02716416
H      -1.67161312     -0.11665140     -1.88114542
H      -2.04978759     -1.35353166     -0.65596505
H       0.63126100     -1.68809351     -0.80427694
