13
b3lypvtz=-213774.7362605
N       2.19470965      0.55865581     -0.58989721
C       1.36537539     -0.53025787     -0.08054610
C      -0.07765136     -0.17363045     -0.19695072
N      -0.61052993      1.00234259     -0.18045091
C      -1.97848350      0.77402331     -0.26884895
C      -2.19924179     -0.55402626     -0.33152739
O      -0.98074801     -1.18351710     -0.28866309
H       3.13383339      0.48840573     -0.22041358
H       1.80848592      1.44650018     -0.29066982
H       1.54330384     -1.44003894     -0.65884492
H       1.55946481     -0.78750986      0.97253637
H      -2.69114055      1.58014011     -0.28245100
H      -3.06757788     -1.18088726     -0.40997266
