14
b3lypvtz=-226980.29958212
C       1.95354847     -0.75942082      0.32172437
O       0.98053000      0.04050809      0.98731519
C       0.01361456      0.56941735      0.12941197
C      -1.09050398      1.35212663      0.85173616
O      -2.10384439      0.44533124      0.29660735
C      -1.13666577     -0.34075443     -0.29849923
N      -1.22681360     -1.41508351     -0.93099329
H       1.49353177     -1.62182036     -0.16479901
H       2.65192410     -1.09713336      1.08403130
H       2.49509601     -0.17043504     -0.42781275
H       0.46994802      1.09862075     -0.71542749
H      -1.26727429      2.37716348      0.53412415
H      -1.04415922      1.27016492      1.93548644
H      -2.18893167     -1.74868494     -0.98727520
