13
b3lypvtz=-213778.69761486
N       0.84957987      0.23537287      0.06681852
C       0.32361915     -0.88668333     -0.61397484
C       0.58458085     -2.23189864     -0.59696699
C      -0.29580975     -2.86946177     -1.52771979
C      -1.06379146     -1.87382418     -2.07746003
O      -2.05964560     -1.86836521     -3.00681437
N      -0.69605692     -0.68302375     -1.53427356
H      -1.09689825      0.21260441     -1.75135709
H       0.71881317      0.17686779      1.06806756
H       1.83503635      0.37168907     -0.11582280
H       1.32654669     -2.71792150      0.01470021
H      -0.35195662     -3.92026471     -1.75802699
H      -2.21221747     -2.77259105     -3.29616982
