14
b3lypvtz=-201276.28825835
C       1.21552374      0.54114745     -0.20443544
C      -0.17976437      0.36652231      0.34106641
C      -1.23178677     -0.30353680     -0.47479559
N      -1.23229663      1.16469949     -0.28347527
C      -2.23288196     -1.09995190      0.18302896
N      -3.04740358     -1.72037394      0.71109682
N       1.99502250     -0.68596934     -0.03100599
H       1.65834983      1.43052529      0.26688021
H       1.13918409      0.75721773     -1.27103013
H      -0.24737991      0.20428909      1.41261541
H      -0.98435231     -0.62941369     -1.47701123
H      -1.94354457      1.42933046      0.39055035
H       2.88330307     -0.60980219     -0.51064376
H       2.20802685     -0.84468395      0.94715925
