13
b3lypvtz=-190468.46403177
C      -1.45812888      1.83085830      0.00766843
C      -0.24072515      1.28492869     -0.00687352
C       0.06054546     -0.14314072     -0.00083119
C      -1.02168766     -1.06943829     -0.00157070
N      -1.91683115     -1.79893421      0.00016224
C       1.32038447     -0.66179040      0.00309865
N       2.49068488      0.02727180     -0.02486532
H      -2.35466368      1.22512803      0.02680844
H      -1.58447855      2.90399239     -0.00132055
H       0.61412212      1.95265147     -0.03322854
H       1.43783567     -1.73709347     -0.00251886
H       2.50732767      1.01811475      0.13784535
H       3.34469479     -0.46293736      0.16660156
