11
b3lypvtz=-210578.05503377
N      -2.30139788     -0.14214160     -0.00010311
C      -1.03259392     -0.00388023      0.00000732
C      -0.26040770      1.22715428      0.00009333
C       1.07972100      1.14959004      0.00000113
N       1.66975000     -0.08150801     -0.00013118
H       2.66575107     -0.21250761     -0.00011572
N       0.97008788     -1.25357308      0.00001492
N      -0.27982541     -1.23126425      0.00009024
H      -2.75580106      0.76978422     -0.00015049
H      -0.75993207      2.18505909      0.00022195
H       1.74289811      2.00356916      0.00003360
