14
b3lypvtz=-226977.53271088
C      -0.50042258      0.94663625      0.59133804
C       0.44927889     -0.22646132      0.21211116
C      -0.70458521     -0.69004986     -0.72341335
N      -1.63838474      0.17112818      0.04152510
C       1.75751020      0.14047396     -0.44771008
O       1.84172666      0.88493321     -1.39003864
O       0.76526560     -1.11259790      1.26600253
H      -0.56240554      1.16342204      1.65922614
H      -0.25361136      1.85600677      0.03726183
H      -0.53218065     -0.37691164     -1.75640326
H      -0.92681167     -1.75801679     -0.68757632
H      -2.29167277      0.70294613     -0.51899274
H       2.64775402     -0.33448555      0.00826029
H      -0.05146084     -1.36702349      1.70840928
