15
b3lypvtz=-191179.38192688
C       0.99977534     -0.80827699     -0.66802347
C       0.57145835     -0.77940527      0.79773585
C       0.07792780      0.55743123      1.15349896
N      -0.87722389     -0.60742006      1.12367211
C      -1.52726136      0.00370354     -0.08820080
C      -0.37909717      1.01937897     -0.26148832
N       0.57897151      0.49732976     -1.23751476
H       0.52246775     -1.62920846     -1.20745633
H       2.07817382     -0.94572383     -0.75694049
H       1.08488000     -1.39801463      1.52066511
H       0.29741514      1.12855750      2.04532653
H      -2.46365934      0.46155879      0.22550275
H      -1.71378371     -0.67732863     -0.92048770
H      -0.63059506      2.06021837     -0.44482627
H       1.38055080      1.11719972     -1.28146315
