15
b3lypvtz=-240211.9998656
C       2.10774274     -0.34600953     -0.62283116
O       1.42903277     -0.42869362      0.63226166
C       0.07099763     -0.10767040      0.58943716
C      -0.10704197      1.39565797      0.30202449
O      -0.91605509      1.86112774     -0.45294273
O      -0.60138790     -0.92201722     -0.32235156
C      -1.98990828     -1.09804919     -0.07175357
H       1.72514130     -1.08586383     -1.32559721
H       2.01749941      0.64996760     -1.06900122
H       3.15525212     -0.54645683     -0.41175460
H      -0.29824046     -0.27907134      1.61354517
H       0.58323897      2.03612308      0.89101340
H      -2.15843828     -1.46856173      0.94612711
H      -2.54839680     -0.17253682     -0.22040178
H      -2.33979816     -1.84450788     -0.78128717
