19
b3lypvtz=-192733.90845453
C       3.44529709      0.05825762     -0.00432396
C       1.97398200      0.44442537      0.05573306
N       1.12627025     -0.72119101     -0.10641161
C      -0.26902710     -0.57724404     -0.00987504
C      -0.94615429      0.58092859     -0.01232687
N      -2.34111690      0.71957670     -0.11627146
C      -3.17306707     -0.45359965      0.04537830
H       4.07969445      0.94063410      0.08531869
H       3.70830968     -0.62044481      0.81101282
H       3.67640739     -0.43894542     -0.94706456
H       1.76497444      0.97842608      0.99708747
H       1.74470484      1.14513663     -0.75261638
H       1.46123007     -1.51192763      0.42556902
H      -0.79539605     -1.52227706     -0.01491934
H      -0.42304337      1.52760153     -0.01637108
H      -2.68124484      1.51022146      0.40959565
H      -4.22061867     -0.15675115      0.01514682
H      -2.99945683     -1.14894985     -0.77935388
H      -2.99062908     -0.99942645      0.98377133
