11
b3lypvtz=-213032.2224288
O       0.96437439     -0.02227802      0.19162252
C       2.16935573      0.03119972      0.05212060
C       2.90512642      1.29621857     -0.05457321
C       4.24008518      1.30130440     -0.20901902
N       4.91799163      0.10661204     -0.26695832
H       5.91696740      0.08677891     -0.38132644
C       4.21818924     -1.06348796     -0.16507884
N       2.94917252     -1.15270101     -0.01676814
H       2.34671992      2.21871110     -0.00610235
H       4.83758154      2.19779981     -0.29348455
H       4.82443603     -1.96405755     -0.21903225
