13
b3lypvtz=-192835.60329875
C      -2.78835155     -1.12780807      0.03051343
C      -2.09751621     -0.15195789     -0.10375192
C      -1.31633732      1.02009952     -0.28119977
C      -0.03582244      1.15818238      0.08691556
C       0.81340094      0.09672986      0.71848733
C       1.77270710     -0.49998048     -0.30029595
O       2.97059328     -0.45751636     -0.21349306
H      -3.39615290     -1.98987667      0.14956965
H      -1.82041175      1.86015579     -0.74647673
H       0.44887273      2.10746312     -0.10898895
H       0.18040491     -0.71349690      1.09128776
H       1.40549020      0.49963169      1.54077421
H       1.27768101     -0.98779199     -1.16465155
