14
b3lypvtz=-226951.6606396
C       3.27118145      0.12278947     -0.28488828
N       2.03058537      0.24668032     -0.06717820
O       1.35664839     -0.94625958     -0.37355349
C       0.00032639     -0.87835890     -0.17637903
C      -0.72766698      0.13975565      0.26403491
C      -2.21311313      0.03387007      0.41824367
O      -2.94690204      0.79683669     -0.54783878
H       3.71912215     -0.79405641     -0.65907525
H       3.88487988      0.98923792     -0.07798690
H      -0.42833121     -1.83640575     -0.44153121
H      -0.24928985      1.07649847      0.51703483
H      -2.50735848      0.33513439      1.43125798
H      -2.53933154     -0.99705815      0.27784352
H      -2.65085041      1.71103580     -0.49878376
