11
b3lypvtz=-267220.7029839
C       0.02150103     -0.70204241      0.06418869
C      -1.28080892     -0.37759319      0.00255789
N      -1.84798452      0.85152802      0.18019103
F      -2.19316335     -1.34057832     -0.19403529
N       0.94358406      0.32400439      0.21501671
C       2.16576054      0.09657438      0.33268763
F       3.02951486      1.11836067      0.46450766
H       0.31381990     -1.74461110      0.01266998
H      -1.17009506      1.59980365      0.19428886
H      -2.66459344      1.03547648     -0.38315236
H       2.68246489     -0.86092255      0.34777211
