19
b3lypvtz=-192719.6078211
C      -1.03628417      2.17454583      0.60654381
C      -0.61061290      0.84615224      0.03798361
C       0.31192295     -0.08560293      0.73705780
C       1.35925584     -0.88425539     -0.00515449
N       2.60328492     -0.10737098     -0.08467560
N      -1.12494088     -0.36752067      0.66608535
C      -1.62221558     -1.43758104     -0.18562537
H      -2.02130155      2.46384614      0.23301496
H      -0.32696371      2.95780776      0.33049555
H      -1.09148322      2.12430666      1.69406184
H      -0.53398358      0.81879632     -1.04820814
H       0.62728686      0.19170715      1.74204131
H       1.48304831     -1.85946800      0.49007469
H       1.03236010     -1.08656049     -1.02521210
H       3.31694741     -0.63802185     -0.57037448
H       2.96431378      0.06995483      0.84634609
H      -2.68647729     -1.27282739     -0.36084661
H      -1.51426523     -2.39410543      0.32879017
H      -1.12999205     -1.51390277     -1.16369840
