10
b3lypvtz=-279691.14710821
C      -0.35320535     -0.56818166     -0.11131943
C      -1.56581258     -0.01718595      0.04370780
O      -1.85872825      1.27635720     -0.00752775
F      -2.64368583     -0.74692232      0.27469749
N       0.69449732      0.31418005     -0.34874475
C       1.87021157     -0.07616486     -0.51038408
F       2.84552396      0.81524836     -0.73646580
H      -0.22406894     -1.64120155     -0.05049854
H      -1.01971230      1.73720792     -0.17924255
H       2.25498041     -1.09333720     -0.49599460
