12
b3lypvtz=-226179.55310342
C      -2.33654715     -0.56434670     -0.10362290
C      -0.95871661     -0.21735414      0.23681736
C       0.18811993      0.06633949      0.47300055
C       1.50843386      0.45159638      0.81308663
N       2.50890604     -0.05020640      0.19357664
O       3.70358787      0.46690054      0.68698416
O      -2.94567939      0.35112970     -1.00871487
H      -2.95469428     -0.54831295      0.79535228
H      -2.36205943     -1.58788856     -0.49629264
H       1.65904334      1.18048359      1.60807450
H       4.36914700      0.02110836      0.15233050
H      -2.37954116      0.43055069     -1.78342720
