14
b3lypvtz=-247841.49313755
O       2.94353335      1.12477937     -1.37339607
N       1.84504567      0.47348841     -0.77706475
N       1.37510232      1.22891231      0.07593683
N       0.35358285      0.70646645      0.79494883
C      -0.38758631     -0.47935512      0.38640916
C      -1.29152453     -0.27438636     -0.83578361
O      -1.94853203     -1.47779341     -1.20981668
H       3.23012613      0.47021059     -2.01970879
H      -0.15851346      1.44752263      1.24253116
H      -0.98975632     -0.78166143      1.24674702
H       0.31994685     -1.28069457      0.17934438
H      -0.69202204      0.02138407     -1.69425119
H      -2.01054481      0.52972458     -0.63601922
H      -2.58885769     -1.70859753     -0.52987707
