18
b3lypvtz=-181895.99126439
C       2.67571567      0.70155104     -0.35193508
C       1.68393299      0.05378137      0.25035943
C       0.32308751     -0.15867884     -0.31238198
C      -0.29185462     -1.59035699     -0.32509619
C      -1.66615146     -0.96173049      0.01308200
C      -0.91681577      0.29230030      0.51442288
N      -1.47829568      1.58849872      0.16562139
H       2.55429703      1.12915682     -1.34054853
H       3.64321187      0.82473564      0.11721583
H       1.85514410     -0.36252488      1.24127690
H       0.24564229      0.28634573     -1.30649090
H       0.09423401     -2.19881324      0.49388193
H      -0.20231574     -2.15655242     -1.25055745
H      -2.23422608     -0.72510546     -0.88679725
H      -2.31073490     -1.48570894      0.71808212
H      -0.69060100      0.17957619      1.58461784
H      -0.83120605      2.32924382      0.41606887
H      -2.32895217      1.76066062      0.69129519
