14
b3lypvtz=-203670.43188726
C       0.19513668      1.46807026      0.09517168
C      -0.92788166      0.48617131      0.34656252
C      -0.65589915     -0.94383610      0.07299711
N      -0.70807907     -0.44622512      1.47038814
C       0.65533595     -1.26157577     -0.52240769
C       1.42885646     -0.27737486     -0.98259635
O       1.16284812      1.04767648     -0.88852588
H       0.73363373      1.64821018      1.02884037
H      -0.19214976      2.41305049     -0.28163142
H      -1.93158019      0.85770956      0.18159365
H      -1.48947475     -1.55521885     -0.25449236
H      -1.60054075     -0.69850386      1.88521751
H       0.97141245     -2.28753469     -0.64202969
H       2.35838193     -0.45061900     -1.50908760
