19
b3lypvtz=-192744.61906861
C       2.40043427     -0.42888207     -0.36454293
C       1.16953839      0.09420590      0.35613115
C       0.06175084     -0.96066608      0.60950473
C      -1.28269063     -0.20711812      0.44660499
N      -2.07527392     -0.81672126     -0.62823157
C      -0.82570287      1.25802744      0.19939668
N       0.52165574      1.19851235     -0.37399299
H       3.12098195      0.37196952     -0.53410327
H       2.88974027     -1.21087205      0.21776814
H       2.13058758     -0.85858659     -1.33351792
H       1.48183362      0.50867858      1.32137506
H       0.15666313     -1.42963019      1.58908820
H       0.11203861     -1.76155427     -0.13164727
H      -1.88700224     -0.26964537      1.35344252
H      -2.93329981     -0.29673902     -0.77736858
H      -1.56285843     -0.79340783     -1.50414771
H      -0.76699938      1.79514769      1.15218415
H      -1.50942087      1.80722616     -0.44878222
H       0.46072575      0.95335320     -1.35855717
