19
b3lypvtz=-221048.83568273
C      -3.23922522     -0.48397646     -0.10159054
C      -2.32507317      0.74208496     -0.13228719
C      -0.95116335      0.51544841      0.49533380
N      -0.16445620     -0.47386233     -0.23910204
C       1.19626114     -0.66350919      0.25526564
C       2.14945860      0.30002529     -0.43468882
F       3.43411461      0.14046655      0.08916738
H      -4.22725373     -0.24394791     -0.49675897
H      -2.84486995     -1.30168027     -0.70812941
H      -3.37203584     -0.85355808      0.91825701
H      -2.18693912      1.07301042     -1.16441358
H      -2.80879791      1.56361086      0.40282731
H      -1.07373694      0.23852350      1.55674661
H      -0.40148253      1.45912636      0.48610073
H      -0.64944378     -1.35953946     -0.24562720
H       1.28040569     -0.52913453      1.34348274
H       1.51976950     -1.68164563      0.03266339
H       1.85606066      1.33969194     -0.27759783
H       2.19008453      0.10036258     -1.50616605
