13
b3lypvtz=-211327.6790561
C      -1.43689715     -0.67671261      0.27089357
C       0.03023173     -1.17889434      0.12420404
N       0.39710953      0.23312183     -0.08188800
C      -0.91011359      0.73706619      0.04425866
N      -1.44529805      1.87197571     -0.00534000
N       1.54102949      0.86566244     -0.30616972
N       2.53163838      0.10095597     -0.35806111
H      -2.12221827     -1.01958950     -0.50060207
H      -1.88213554     -0.82906030      1.25114705
H       0.48232028     -1.61261116      1.01480443
H       0.24101932     -1.80683563     -0.73993235
H      -0.76192147      2.60723406     -0.18005611
H       3.33523534      0.70768731     -0.53325837
