12
b3lypvtz=-226234.17909579
C       3.19269041     -0.23666715      0.00002500
N       1.93547494     -0.41546708     -0.00002613
C       1.11364739      0.70506181      0.00001400
C      -0.21904996      0.63208910      0.00000073
O      -0.86812098     -0.57896382      0.00001470
C      -2.22591789     -0.57483168     -0.00000027
O      -2.92895177      0.39170869     -0.00002359
H       3.66002010      0.75524685     -0.00016465
H       3.85131808     -1.09992464     -0.00016742
H       1.55968280      1.69957689      0.00006297
H      -0.85675822      1.50244197     -0.00002007
H      -2.56917090     -1.61466494      0.00001273
