18
b3lypvtz=-205211.56780827
C       3.37049039      0.22140102      0.09021163
C       2.22593257     -0.45624331     -0.03813141
N       0.96990243      0.07301335     -0.26439238
C      -0.21166315     -0.62727634      0.19932969
C      -1.47315474      0.05002767     -0.32930766
C      -2.74374400     -0.68129679      0.07898564
O      -1.50368204      1.42549052      0.07730727
H       3.40214169      1.30371620      0.07447079
H       4.30742193     -0.30494327      0.18598108
H       2.23764739     -1.54170222     -0.01307091
H       0.89581117      1.07500681     -0.15891764
H      -0.17350140     -1.65931359     -0.15929889
H      -0.27156808     -0.67318511      1.30019172
H      -1.40423769      0.09677757     -1.41771008
H      -2.75825256     -1.69800646     -0.31761061
H      -2.82547902     -0.74657278      1.16780846
H      -3.61881796     -0.15281065     -0.29796899
H      -1.69897694      1.45765537      1.02079629
