18
b3lypvtz=-205201.65977253
C       2.62793426     -0.45418425     -0.09175533
C       1.25356998      0.04745635      0.32081188
O       1.08895424      1.34925781     -0.23267106
C       0.12565489     -0.88392558     -0.14289936
C      -1.21925390     -0.51140333      0.43970377
C      -2.43939233     -0.37383868     -0.38637930
N      -1.73560453      0.83123212      0.08452839
H       3.39018336      0.26805996      0.20072926
H       2.85606945     -1.41024303      0.38312735
H       2.67802413     -0.57810535     -1.17519223
H       1.22102152      0.10899623      1.42032889
H       0.13711769      1.53396345     -0.26286577
H       0.08500195     -0.84410990     -1.23478947
H       0.35572591     -1.91585039      0.13676113
H      -1.37142156     -0.81687070      1.47013423
H      -2.38034025     -0.54515975     -1.45388807
H      -3.39759928     -0.61096104      0.05908532
H      -2.22656953      1.24675009      0.86792237
