20
b3lypvtz=-182663.14588711
C      -0.45941812      1.75398479      0.28529009
C       0.03455099      0.35492763     -0.05541912
C      -1.07195396     -0.48979427     -0.69666290
N      -2.22790828     -0.65373285      0.19197089
C       1.34623818      0.27435377     -0.89692709
C       1.90511613     -0.78502879      0.08568792
C       0.78135250     -0.41370100      1.08468916
H       0.33133284      2.34254040      0.75471471
H      -1.31252410      1.71211597      0.96231935
H      -0.77823499      2.28293883     -0.61743415
H      -0.64227556     -1.44630274     -1.02874256
H      -1.41761968      0.02581859     -1.59737524
H      -2.99093233     -1.10313829     -0.29895081
H      -1.99253433     -1.25629019      0.97188724
H       1.23810416     -0.02373459     -1.94128610
H       1.90651992      1.20918116     -0.86381616
H       2.93008564     -0.64615809      0.42688977
H       1.80981606     -1.80143794     -0.29499053
H       0.25180230     -1.23966420      1.56255090
H       1.12688164      0.26171482      1.86773564
