17
b3lypvtz=-194374.0689285
C      -2.23656597      0.30269889      0.39078884
C      -1.05246953     -0.19688594      0.03013716
C      -0.89309815     -1.64510409     -0.35795206
C       0.15870421      0.66556689      0.02348678
C       0.16643050      1.87323302     -0.54560475
C       1.42156808      0.13832382      0.67416918
O       2.10163917     -0.83181110     -0.12622919
H      -3.12687255     -0.31341465      0.39637227
H      -2.34682751      1.33152934      0.70546259
H      -0.15626705     -2.15015098      0.26799282
H      -0.53002200     -1.73613340     -1.38431979
H      -1.84275215     -2.17264747     -0.27700164
H      -0.69674498      2.26217869     -1.06893854
H       1.04399576      2.50743724     -0.50317361
H       2.08288392      0.97922381      0.90690239
H       1.19100631     -0.37281687      1.60972367
H       2.27921995     -0.43125120     -0.98361312
