12
b3lypvtz=-223822.06057096
C      -2.70769697     -0.57801860      0.00000679
N      -1.72872947      0.23420483      0.00000124
N      -0.47820424     -0.27025949      0.00000157
C       0.61645915      0.56291496      0.00000274
N       0.66429739      1.83497675     -0.00000445
C       1.91978517     -0.18120230      0.00000278
O       1.99308148     -1.38590855     -0.00001984
H      -2.58890330     -1.66308800      0.00000797
H      -3.70537306     -0.16190459      0.00000269
H      -0.30558917     -1.27116669      0.00000962
H      -0.27412441      2.23571646     -0.00001305
H       2.80072544      0.48021122     -0.00000506
