13
b3lypvtz=-239457.12238416
O       1.18707676      1.64930246     -0.71113743
C       0.32553326      0.65374751     -0.33220221
C       0.52415119     -0.38968937      0.46569089
O       1.64405659     -0.76869523      1.15793327
C      -0.73144625     -1.19354046      0.58108926
O      -1.67006459     -0.51951791     -0.26377017
C      -1.07128214      0.63300323     -0.86567104
H       1.80408146      1.83187098      0.00636395
H       2.43071993     -0.51542598      0.66213049
H      -0.59221652     -2.22608388      0.23812594
H      -1.11476429     -1.23254224      1.60817072
H      -1.10479218      0.54305543     -1.95844603
H      -1.63105321      1.53461547     -0.58827762
