16
b3lypvtz=-181151.49581424
C       2.74365592     -0.33629788      0.01016043
C       1.74914445      0.56055250      0.04733126
C       0.34137443      0.26714570      0.01694447
C      -0.66219351      1.16591475     -0.01266079
N      -1.91924457      0.59118412     -0.15833002
C      -1.77155270     -0.84758870      0.14397307
C      -0.27159751     -1.11685652     -0.10665965
H       2.55459530     -1.40011752     -0.05521974
H       3.77870489     -0.02688615      0.04368982
H       2.00656723      1.61462177      0.10904987
H      -0.57034528      2.24290878      0.00559593
H      -2.69070402      1.06576690      0.28594839
H      -2.42749718     -1.44767485     -0.48522285
H      -2.02316673     -1.04675742      1.19175638
H      -0.10173673     -1.52192256     -1.11006822
H       0.13870202     -1.83609593      0.60334365
