18
b3lypvtz=-205190.73417998
C       2.60329769     -0.55466684     -0.12011245
C       1.10948435     -0.77842100      0.11543064
C       0.34286838      0.50337317      0.51384227
C       0.32012734      1.57097709     -0.59444232
C      -1.04990987      0.18456258      1.01233721
N      -2.04689595     -0.32059950      0.40661824
O      -1.77899641     -0.62077655     -0.94663818
H       3.10712990     -1.50297929     -0.31356638
H       2.79109777      0.09317406     -0.97707686
H       3.08027515     -0.10007610      0.75181688
H       0.64765559     -1.20640639     -0.77438571
H       0.98338945     -1.51621451      0.91232325
H       0.86901562      0.93455324      1.37158403
H      -0.16159516      1.19039225     -1.49289009
H       1.33332343      1.88403831     -0.84651834
H      -0.22594620      2.45715930     -0.26776443
H      -1.27943516      0.40493664      2.05104091
H      -2.61931692     -0.98283646     -1.24355768
