18
b3lypvtz=-181875.36971548
C       2.32971492      0.59618956     -0.19507521
C       1.21862200      0.06144526      0.69952965
N       0.23624095     -0.68767219     -0.06891251
C      -0.93170286     -1.28839554      0.63805280
C      -1.87853513     -0.60788369     -0.34907308
C      -0.65691719      0.02588877     -0.98405124
C      -1.68153271      0.88269443     -0.28943228
H       1.93523633      1.29609089     -0.93430679
H       3.07897932      1.12625549      0.39503887
H       2.81856740     -0.21959218     -0.72875429
H       1.63936687     -0.62256235      1.44130528
H       0.76666842      0.89581373      1.26163722
H      -1.04858793     -0.98347869      1.68409719
H      -0.91854461     -2.37795933      0.58334909
H      -2.72511763     -1.07065887     -0.83246929
H      -0.40521283      0.14846892     -2.02891349
H      -1.45966696      1.36492086      0.65562037
H      -2.31757837      1.46043491     -0.94764231
