13
b3lypvtz=-213754.94023168
C       1.62376134      0.39598674      0.28992731
C       2.10575777      1.75390053      0.54825423
N       2.50733176      2.80781881      0.76918219
O       0.36434735      0.46480833     -0.35204747
C      -0.16127336     -0.78050225     -0.67077281
C      -1.43591545     -1.05613416     -0.39263578
N      -2.29808306     -0.24186815      0.32688601
H       2.35861875     -0.12227474     -0.33821751
H       1.55610690     -0.14336502      1.24139718
H       0.49121899     -1.46730149     -1.19400888
H      -1.83996937     -2.00619941     -0.71435078
H      -2.00042078      0.71898296      0.40275161
H      -3.27148083     -0.32385215      0.08363472
