13
b3lypvtz=-242029.61523717
C      -1.42596255     -0.51399883     -0.53094746
C      -0.59626960      0.47661427      0.21362138
C      -1.11871851      1.54413513      0.81108653
F      -0.36092556      2.43590806      1.48326528
O       0.76975605      0.31138490      0.30828392
N       1.24743381     -0.82841075     -0.34466925
C       2.50494101     -0.92284208     -0.21829133
H      -2.47104749     -0.21101100     -0.48965208
H      -1.33048270     -1.51226714     -0.10228219
H      -1.11943865     -0.58259170     -1.57527156
H      -2.17099975      1.77880548      0.80660601
H       2.97032634     -1.77638154     -0.69172693
H       3.10148760     -0.19924480      0.32997768
