11
b3lypvtz=-238908.9886042
F       2.41682952      0.48607118      0.00000616
C       1.61259730     -0.64813733     -0.00000795
C       0.17635966     -0.23941951     -0.00004521
N      -0.80916704     -1.13396963      0.00006223
N      -1.90037907     -0.38109123     -0.00006966
H      -2.82114682     -0.78635749      0.00010902
N      -1.71381427      0.92635209     -0.00008901
C      -0.38738285      1.04606881     -0.00010371
H       1.85662199     -1.23561925     -0.88733244
H       1.85656037     -1.23559021      0.88735281
H       0.09277320      2.00753857      0.00005777
