12
b3lypvtz=-223828.82296445
C      -2.50681933      0.24971971      0.00003360
N      -1.43145829     -0.72589959     -0.00008150
C      -0.25675320     -0.28318588     -0.00008879
N       0.29803791      0.97899746     -0.00008009
H      -0.18365652      1.85715500      0.00003274
N       1.67882698      0.94632803     -0.00027077
C       1.94018689     -0.30280072      0.00006013
O       0.85640374     -1.12176673     -0.00021184
H      -2.48581855      0.89732788     -0.88696220
H      -2.48575834      0.89722107      0.88710658
H      -3.46214435     -0.27152575      0.00003020
H       2.91691205     -0.75271548      0.00035992
