13
b3lypvtz=-190437.75395657
C      -3.15032000      0.09592471     -0.03680627
C      -2.02596313     -0.33960754     -0.01749728
C      -0.70333385     -0.82429926      0.00972822
C       0.38865850     -0.01665135      0.04269075
N       0.32633465      1.35742029     -0.01429208
C       1.72360751     -0.64187483      0.06285795
N       2.85393861     -0.08196431     -0.08922674
H      -4.14694901      0.46024686     -0.05570141
H      -0.54969077     -1.89478966     -0.01822506
H       1.03552529      1.85778838      0.49834925
H      -0.59562987      1.75298989      0.09080488
H       1.71093629     -1.71882383      0.23040798
H       2.75899977      0.91772764     -0.27829818
