17
b3lypvtz=-215286.5154058
C      -1.50416608      1.46497435     -0.30378534
C      -1.12690096      0.13329112      0.36397255
N      -2.04697904     -0.96488020      0.06008905
C       0.30707050     -0.29771314      0.05284891
N       0.65307253     -1.47990810     -0.23775184
C       1.41068422      0.73693395      0.14100981
O       2.68145008      0.16134595     -0.00035463
H      -0.85013898      2.28165317      0.00368798
H      -1.44952983      1.38105318     -1.39174371
H      -2.52571946      1.73793539     -0.03625171
H      -1.16145468      0.28033086      1.44917028
H      -2.90876070     -0.86759535      0.58089050
H      -2.29103042     -0.96555655     -0.92435051
H      -0.16047340     -2.09688554     -0.24081918
H       1.25135181      1.49698931     -0.63529414
H       1.33573711      1.25817185      1.10552010
H       2.51198331     -0.77755224     -0.19200012
