16
b3lypvtz=-204441.53249036
N       2.88312516      0.61290966      0.29896121
C       2.27537656     -0.45514557      0.01279831
O       0.96552037     -0.68670824     -0.23633296
C       0.06338599      0.43069355     -0.19560253
C      -1.31488346     -0.05917749     -0.51802012
C      -2.50485302      0.68455914      0.02898443
C      -2.16190792     -0.68191943      0.55622691
H       2.27490036      1.42716491      0.34444088
H       2.81993825     -1.39256749     -0.06466498
H       0.39227937      1.18265904     -0.91999759
H       0.08795304      0.88274666      0.80148102
H      -1.41723483     -0.47077797     -1.51409666
H      -2.32118829      1.53601846      0.67084994
H      -3.37155130      0.79000606     -0.60784600
H      -2.79703675     -1.51249828      0.28322774
H      -1.74038654     -0.75152102      1.54994240
