11
b3lypvtz=-233916.13375363
C      -1.03726974     -0.21640066     -0.08878827
N      -2.18395835     -0.75159858     -0.24579339
N       0.17302669     -0.91740386     -0.17443615
C       1.19394649     -0.04166283      0.04453330
N       0.80282583      1.16394289      0.26657605
N      -0.59161281      1.05873013      0.18407726
O       2.45934413     -0.47516695      0.01439377
H      -2.93522572     -0.07774461     -0.14529646
H       0.23992794     -1.90037640     -0.36666441
H      -1.15393032      1.87557608      0.32135679
H       3.03292589      0.28210479      0.19004152
