15
b3lypvtz=-214536.61083653
C       2.11964394     -0.93617390     -0.61591226
C       1.29090874     -0.18278433      0.11301640
N       1.57452920      1.13278665      0.49130147
C      -0.07030149     -0.67109594      0.53086897
C      -1.25089989      0.05822425     -0.08143097
N      -1.29237708      1.10910804     -0.77759049
O      -2.40146954     -0.59513138      0.22866799
H       3.10280462     -0.58631987     -0.90319591
H       1.81965260     -1.91367662     -0.95994951
H       1.19138117      1.42312540      1.37831483
H       2.53864787      1.41011013      0.38746687
H      -0.17182899     -1.72830581      0.28952821
H      -0.18093771     -0.60245315      1.62001497
H      -0.36571995      1.50219500     -0.91217420
H      -3.11706350     -0.08338446     -0.17578338
