19
b3lypvtz=-195140.87302443
C       2.12498235     -0.81954933      0.47860737
C       1.04031755     -0.17939883     -0.35479774
O      -0.00000195     -1.11795435     -0.74206862
C      -1.04031805     -0.17939500     -0.35479795
C      -2.12498537     -0.81954160      0.47860689
C       0.00000147      0.74054829      0.31835704
C       0.00000454      2.22086118     -0.01786755
H       2.86604177     -0.07404891      0.77820232
H       1.70464861     -1.27594330      1.37594160
H       2.63846697     -1.59527506     -0.09239971
H       1.47530247      0.28330870     -1.24997707
H      -1.47530114      0.28331402     -1.24997740
H      -2.63846779     -1.59527012     -0.09239835
H      -2.86604601     -0.07403995      0.77819571
H      -1.70465474     -1.27593122      1.37594479
H       0.00000114      0.59618481      1.40152694
H       0.00000463      2.37874262     -1.09859075
H      -0.88037709      2.72073802      0.39254544
H       0.88038863      2.72073401      0.39254503
