13
b3lypvtz=-190466.68870707
C      -1.12483001      0.81754060      0.20431981
C      -1.15447101     -0.72660670      0.14596840
N       0.26014284     -1.11086342      0.34377617
C       1.01828127     -0.00477983     -0.08747525
C       0.29972975      1.12237827     -0.18575335
C       2.41777012     -0.14428862     -0.30750765
N       3.54663966     -0.27801237     -0.49930627
H      -1.32618234      1.17912346      1.21912255
H      -1.86756819      1.27201950     -0.45140240
H      -1.51130081     -1.05801845     -0.83570220
H      -1.78585927     -1.17170078      0.91255689
H       0.52833445     -1.99660748     -0.06107315
H       0.69931356      2.09981582     -0.39752355
