17
b3lypvtz=-194301.34499814
C       1.36542629     -0.05204663     -0.01880468
C       0.63947019      0.69583212      1.08440216
C       1.29663786      2.11399061      1.49837239
C       0.32126868      2.72839271      0.42883441
C      -0.58561675      1.62242223      0.73712256
O      -1.55564776      2.09194773     -0.28890374
C      -0.99643960      3.44271897     -0.00608008
H       1.55120907      0.56937161     -0.89533303
H       0.78239945     -0.91555296     -0.34296453
H       2.32953413     -0.41848460      0.33941265
H       0.45035728      0.02430586      1.92287922
H       1.07101910      2.37036538      2.53099427
H       2.36371466      2.22321808      1.31148939
H       0.79085604      2.49511372     -0.52707992
H      -1.10114146      1.77533748      1.69339775
H      -0.97534605      4.05916772     -0.90290533
H      -1.56160113      3.92289993      0.79586652
