11
b3lypvtz=-262037.70326224
C      -0.80501902     -0.37325469      0.01813133
C      -2.02326294      0.52181285     -0.04058467
O      -3.14164893      0.08564198     -0.06696098
O       0.33822144      0.45939109      0.25071779
C       1.52776282     -0.12629924      0.07178425
O       1.71603715     -1.26329653     -0.27096785
O       2.48200626      0.77777372      0.33998965
H      -0.91601410     -1.10783935      0.81707264
H      -0.69899349     -0.91451089     -0.92430928
H      -1.80762787      1.60792742     -0.07050572
H       3.32853869      0.33265365      0.20307855
