14
b3lypvtz=-224596.94985663
C       2.21672727     -0.49943925      0.04449133
N       1.49608422      0.55168640      0.01995628
N       0.12302430      0.53203888     -0.02412965
C      -0.45722548      1.87062798     -0.04770832
C      -0.67580299     -0.60551947     -0.00887903
N      -2.03711876     -0.35159312      0.01757470
O      -0.24529962     -1.74450167     -0.05988767
H       3.28373230     -0.30905788      0.08210821
H       1.84633078     -1.51365163      0.02884048
H       0.35628190      2.56567844     -0.22353970
H      -1.18927976      1.96384813     -0.85026052
H      -0.93046569      2.12975657      0.90513157
H      -2.57958203     -1.18213871      0.18955219
H      -2.39095644      0.48969333      0.43876414
