15
b3lypvtz=-214538.46577964
C      -1.95826546     -0.72636537     -0.65048020
C      -1.13749169     -0.12946660      0.49201910
C      -0.63216657      1.29488862      0.21435500
O       0.67489509      1.11970914     -0.34619096
C       1.15245255     -0.11253403     -0.00800390
N       2.32847394     -0.45022795     -0.32270086
N       0.15393988     -0.78390183      0.69519811
H      -2.90825284     -0.19916288     -0.75783301
H      -1.41783720     -0.65806344     -1.59608862
H      -2.18357733     -1.77744425     -0.45983694
H      -1.71884352     -0.15318055      1.41560931
H      -0.55081259      1.87815790      1.13431487
H      -1.24321803      1.83643676     -0.50521875
H       2.53571424     -1.39480120     -0.01415049
H       0.19187452     -1.79014632      0.67622434
