16
b3lypvtz=-204470.80069311
N      -2.38354416     -0.47156624     -0.20611703
C      -1.08877240     -0.10326712      0.36371294
C      -0.59634824      1.25755454     -0.16630291
C       0.91750247      1.23616345      0.06730337
C       1.30532018     -0.24129521     -0.01833584
O       2.42868901     -0.67282063     -0.05376883
C       0.02450875     -1.06993503     -0.04949460
H      -3.09167991      0.20469159      0.05911137
H      -2.69235260     -1.36622424      0.15775522
H      -1.10802662     -0.05102275      1.46333702
H      -1.09741863      2.09754724      0.31586380
H      -0.82051178      1.30641444     -1.23441098
H       1.17979804      1.58228577      1.07191708
H       1.50161784      1.83028006     -0.63427091
H      -0.14324487     -1.38736852     -1.08486207
H       0.11925593     -1.96741336      0.56091637
