15
b3lypvtz=-214538.60029884
N       2.03919131     -0.90769331     -0.40531093
C       0.70400718     -0.67382965     -0.22265569
N      -0.23535941     -1.48870714     -0.50560086
C      -1.50762946     -0.89117387     -0.08216788
C      -1.22509005      0.60946218      0.16424983
C       0.27868946      0.61756812      0.45425845
O       1.02111149      1.71060249     -0.08509264
H       2.26516540     -1.67931917     -1.01261102
H       2.60384536     -0.08245190     -0.52935081
H      -1.86042969     -1.38591311      0.82907275
H      -2.27059877     -1.05621137     -0.84421854
H      -1.82707327      1.04185616      0.96319084
H      -1.39496219      1.18435576     -0.74778359
H       0.48375342      0.53074859      1.52915960
H       0.92517922      2.47060620      0.49506047
