16
b3lypvtz=-181141.34125513
C      -2.86833642     -0.64031597     -0.10745505
C      -1.78422938      0.06525732      0.22121972
N      -0.47724459     -0.29932861     -0.04117078
C       0.61809948      0.55954425     -0.05509371
C       0.52568582      1.90195242     -0.03391231
C       1.93773697     -0.08404665     -0.07200873
C       2.19592849     -1.37797512      0.11562440
H      -3.84627555     -0.30780518      0.20325775
H      -2.80909073     -1.56112133     -0.67393526
H      -1.87680906      0.98872393      0.77765939
H      -0.33490654     -1.20499771     -0.45682867
H       1.42319800      2.49758797      0.02732578
H      -0.41683297      2.42610752     -0.06438790
H       2.76100003      0.59414769     -0.26160459
H       3.20875687     -1.75334434      0.07233130
H       1.42506858     -2.10383019      0.34076567
