18
b3lypvtz=-181901.85906156
C      -2.33824170     -0.96681606     -0.46946970
C      -1.47909961     -0.54480809      0.45607076
C      -0.52387997      0.57106290      0.31482578
C      -0.82974134      1.68775762     -0.35162198
C       0.81870598      0.38634833      0.98624913
C       1.69672188     -0.67659722      0.31322898
N       2.11203509     -0.23181148     -1.01849446
H      -2.38429695     -0.51549599     -1.45271523
H      -3.01932970     -1.78397822     -0.27271465
H      -1.44346283     -1.07222026      1.40619219
H      -0.11270245      2.49125611     -0.45726659
H      -1.80748240      1.83715479     -0.79035839
H       1.36232859      1.33164392      0.99339866
H       0.65681260      0.08889994      2.02755001
H       2.59668819     -0.81495532      0.91647461
H       1.16153760     -1.63707838      0.31284994
H       1.30012036     -0.10384516     -1.61225702
H       2.69134966     -0.93412144     -1.46239703
