14
b3lypvtz=-224587.98412049
C       2.03174513      1.21238752     -0.30606228
N       1.63704505      0.02475458     -0.53867664
C       0.31499348     -0.39497173     -0.62891934
N       0.09307547     -1.67458845     -1.25276311
C      -0.77384891      0.18689471     -0.07009093
N      -2.00442315     -0.44641467      0.07406318
O      -0.71920631      1.42680109      0.49233167
H       1.37691387      2.07282338     -0.18434043
H       3.10313425      1.38252839     -0.22844743
H       0.71573239     -2.35998560     -0.83653194
H       0.34924971     -1.63278262     -2.23403286
H      -2.78060749      0.10655595     -0.26974865
H      -1.97660518     -1.35373787     -0.37549170
H      -1.36709831      1.44963534      1.20891047
