10
b3lypvtz=-199740.21447509
C       2.73992882     -0.42598542     -0.20337936
C       1.57213177     -0.23358676     -0.00159441
C       0.19561236     -0.00509876      0.22946994
C      -0.76720624      0.43204542     -0.65455866
N      -1.89290236      0.47262795      0.08492326
N      -1.66326479      0.08681193      1.35587225
N      -0.40830556     -0.20209450      1.44987288
H       3.77303929     -0.59809121     -0.37506470
H      -0.72625041      0.69931720     -1.69426293
H      -2.82278289      0.74169499     -0.19127828
