12
b3lypvtz=-226241.92866209
N       1.13058207      0.16145944      0.19499136
C       0.42310618     -0.43728731      1.22172845
C       0.38859223     -1.70944732      1.71163693
C      -0.48228286     -1.64894527      2.85202788
O      -0.83709402     -2.67684399      3.67357279
C      -0.91214168     -0.37185798      2.97695901
O      -0.34687841      0.38686635      1.95619435
H       0.68266342      0.99296627     -0.16226889
H       1.38472727     -0.47128667     -0.54723508
H       0.90986263     -2.56915274      1.32572935
H      -0.36799341     -3.47067292      3.40343111
H      -1.56244340      0.14020214      3.65793273
