17
b3lypvtz=-194366.21397198
C      -1.32748819      1.05024175      1.27655166
C      -0.78923504      0.16926100      0.44577751
C      -0.99049008     -1.31664406      0.20124914
C      -0.24124501     -1.14571859     -1.15465972
C       0.17932950      0.29265068     -0.72058120
C       1.64311267      0.40435911     -0.29137750
O       1.92651535      1.62258124      0.37865077
H      -1.09337675      2.10594856      1.20874058
H      -2.04278707      0.75355222      2.03433888
H      -0.45324323     -1.94968319      0.91040156
H      -2.02359709     -1.66092650      0.15420915
H      -0.91165047     -1.14845865     -2.01178699
H       0.57452354     -1.84257620     -1.34599343
H      -0.04422619      1.09409975     -1.42638711
H       1.91431337     -0.45760026      0.33253813
H       2.28583761      0.38540284     -1.17329591
H       1.39370707      1.64351031      1.18152453
