15
b3lypvtz=-212101.84799855
C      -0.29316983      2.00358885      0.38610456
N       0.06116415      0.95030740     -0.57835928
C       0.12431683     -0.35695154     -0.04972646
C      -0.99352123     -1.09208862      0.17637605
N      -2.25704214     -0.64161149     -0.07340136
N       1.32861485     -1.00372973      0.19478627
N       2.35382888     -0.33498895     -0.10222638
H      -1.29737773      1.83300727      0.77447554
H       0.39470223      2.05914295      1.23727517
H      -0.29114599      2.96588234     -0.12621866
H       0.97215238      1.15525250     -0.97619377
H      -0.88771872     -2.07337659      0.61494204
H      -2.32193245      0.13094038     -0.72096837
H      -2.99246533     -1.32295665     -0.14305630
H       3.16112410     -0.92959711      0.10841096
