20
b3lypvtz=-205979.30424523
C       1.50824498      1.16048224      0.75260917
C       0.72292014      0.33062490     -0.26902675
C       1.59130847     -0.82679216     -0.77947650
C      -0.62328610     -0.15725820      0.31068390
N      -1.52196488      0.91471669      0.77463473
C      -1.44094458     -1.00630152     -0.67399139
O      -2.68633533     -1.37400995     -0.11613984
H       2.44226255      1.52316154      0.32029394
H       1.76286806      0.55740019      1.62880294
H       0.94767274      2.03069618      1.09551411
H       0.48858171      0.97954269     -1.12290168
H       1.78155039     -1.55110470      0.01717636
H       2.55840126     -0.45664834     -1.12401811
H       1.13021798     -1.35834185     -1.61113484
H      -0.41786395     -0.78410020      1.18498900
H      -1.21674248      1.31281562      1.65181123
H      -1.56856228      1.66858450      0.09716511
H      -1.57946294     -0.43789670     -1.60832530
H      -0.91654236     -1.92716850     -0.92491749
H      -2.96222339     -0.59830243      0.39625140
