15
b3lypvtz=-216916.89312002
C      -2.24606328      0.60222759      0.12204414
O      -0.83562770      0.70650281      0.02688983
C      -0.11168119     -0.44540755     -0.07014039
C      -0.63544937     -1.68159800     -0.08110006
C       1.32144818     -0.19579918     -0.16312262
C       1.87332386      1.02094104     -0.15499915
O       3.19972811      1.29834772     -0.23909990
H      -2.54302407      0.04700349      1.01571897
H      -2.66750967      0.11338307     -0.76034391
H      -2.62116242      1.62056860      0.18655401
H       0.02311101     -2.53240372     -0.16191001
H      -1.69250958     -1.87790050     -0.01281693
H       1.95049737     -1.07538951     -0.24271614
H       1.28474481      1.92285616     -0.07755962
H       3.70017395      0.47666796     -0.30697861
