14
b3lypvtz=-201288.40732372
N       3.08602460     -0.30868637     -0.05076999
C       1.81891856     -0.46723344     -0.01224272
C       0.81727451      0.58122660      0.02295923
C      -0.52978461      0.41742161      0.05939244
N      -1.40561226      1.48352403     -0.05160210
C      -1.17215170     -0.91575804      0.14455843
N      -2.38103386     -1.19706791     -0.12706868
H       3.32588298      0.68579288     -0.06714725
H       1.46847612     -1.49859291     -0.00410739
H       1.20538422      1.59663137     -0.01104614
H      -2.25034686      1.42242568      0.49664283
H      -0.98910598      2.40047912     -0.02348791
H      -0.53873996     -1.72739625      0.49113326
H      -2.88432276     -0.38003638     -0.47899499
