12
b3lypvtz=-254542.15515055
O       2.40284486     -0.45807976      1.11157176
C       1.44643948     -1.22190758      0.51207528
C       0.31089867     -0.80737859     -0.06333096
C      -0.13833476      0.56582242     -0.16639511
C      -1.27861751      0.93186869     -0.74961453
O      -2.17608794      0.11354161     -1.32282290
F      -1.65336680      2.22490823     -0.82029999
H       2.15649593      0.47205242      1.07338887
H       1.71326326     -2.26827803      0.54932052
H      -0.32291472     -1.57347110     -0.48732489
H       0.44664912      1.38166678      0.23626115
H      -2.90706959      0.63945490     -1.66692920
