13
b3lypvtz=-216113.98188423
C       3.26805805      0.06415875      0.10414210
C       2.13328291     -0.24498191     -0.13123078
C       0.77578583     -0.64188158     -0.39080069
O       0.26703716     -0.43032234     -1.72495885
C      -0.28659602      0.34172226     -0.66378797
C      -1.72486988      0.05685571     -0.32693170
O      -1.99023466      0.63933577      0.94324586
H       4.27168077      0.34306345      0.30829967
H       0.47982456     -1.59095122      0.04594544
H      -0.00826618      1.39164944     -0.66728305
H      -2.36084964      0.49172521     -1.10733957
H      -1.88847636     -1.02667213     -0.32399300
H      -2.93627655      0.60639858      1.10819256
