14
b3lypvtz=-226967.35106846
C       2.29788748      0.51128616      0.01757321
N       1.04137895      0.57364936      0.14211150
C       0.21493012     -0.37936819     -0.48930913
C      -1.23378931      0.07535923     -0.65233210
O      -1.56154122      1.31116092     -0.08272219
C      -0.93523078     -1.01333490      0.32435168
O      -1.09459502     -0.76456706      1.67599147
H       2.80666658     -0.26909166     -0.55735144
H       2.91705347      1.26164774      0.50065602
H       0.65269374     -1.00404267     -1.26413276
H      -1.75777753     -0.12670130     -1.57769973
H      -0.72061093      1.73413597      0.15508373
H      -1.16263081     -2.03738763      0.05565867
H      -1.46443475      0.12715404      1.75202108
