12
b3lypvtz=-252130.58898465
C      -1.45091561     -0.25945870      0.68494912
C      -0.55334631      0.23523964     -0.16456444
N      -0.21244760      1.58188039     -0.29781619
O       0.15637402     -0.59612216     -1.00386620
C       1.40342960     -1.03878673     -0.59896090
N       2.00694365     -0.85204923      0.48051847
F      -1.58121604     -1.58938975      0.86766389
H      -2.11136243      0.33717996      1.29565966
H      -0.19118734      1.88482846     -1.26339150
H      -0.77350382      2.20507443      0.26494270
H       1.82702369     -1.62972951     -1.40381342
H       1.48020819     -0.27866680      1.13867884
