11
b3lypvtz=-292936.84117926
C       2.56096106     -0.21611189      0.02336104
O       1.20095860     -0.58422981      0.33318176
C       0.26750857      0.31824107      0.01624663
O       0.46200409      1.40055217     -0.45842581
C      -1.11953229     -0.25504622      0.35435631
F      -1.43498597     -1.19955087     -0.57947999
F      -2.04332059      0.72494377      0.29823136
H       2.83351883      0.69500293      0.55254248
H       2.67085557     -0.05704826     -1.04771796
H       3.17022693     -1.05132962      0.35290542
H      -1.14604280     -0.72299828      1.33984474
