14
b3lypvtz=-229606.66376578
C      -1.74076695      0.61500444     -0.33368965
C      -0.92843008     -0.34490102      0.50751515
N      -1.43002720     -1.07417631      1.43508863
C       0.50794312     -0.47881271      0.28347375
C       1.28930562      0.14585086     -0.60838420
N       2.65821680      0.09384947     -0.70821224
F       0.79655456      0.99584657     -1.53005076
H      -1.35642531      1.63280176     -0.25417250
H      -2.78065304      0.60631955     -0.00931490
H      -1.70120662      0.34480327     -1.38982481
H      -2.43282618     -0.90950701      1.51389322
H       0.99996247     -1.17300680      0.95139774
H       3.01860462      0.18248133     -1.64663020
H       3.09974819     -0.63655337     -0.17328519
