19
b3lypvtz=-192739.34666498
C      -2.28766486     -1.12910076     -0.08596315
C      -1.37914489      0.07711986     -0.30920078
C      -1.73568365      1.21395317      0.64860835
N       0.01680173     -0.34463037     -0.11824302
C       1.03048264      0.53197103     -0.67698688
C       2.41852260      0.21258814     -0.16779049
N       2.72490804     -0.57819051      0.76895632
H      -2.06832206     -1.92807605     -0.79815355
H      -2.15301665     -1.52493229      0.92247179
H      -3.33512879     -0.85345058     -0.20950896
H      -1.53730561      0.43542570     -1.33973356
H      -1.10004461      2.08797952      0.50263641
H      -1.62291843      0.88394430      1.68255332
H      -2.76785723      1.53253858      0.49381030
H       0.13732487     -1.27474757     -0.50183185
H       0.81006514      1.56657345     -0.39758656
H       1.05795843      0.52752629     -1.77980393
H       3.22637727      0.74002806     -0.68188424
H       1.86852207     -0.97923097      1.16311447
