13
b3lypvtz=-190443.43314949
C      -1.34896779      0.22462977     -1.01007380
C      -0.53173267     -0.34306520      0.15862022
C       0.87806989      0.02698572      0.03802070
C       2.04329994      0.31412587     -0.07244092
C       3.36452197      0.64045248     -0.19719322
N       4.48325569      0.91369248     -0.30359976
N      -1.06447153      0.17380469      1.42729955
H      -2.38692087     -0.10002240     -0.91982516
H      -1.32067481      1.31287260     -0.99146479
H      -0.96116831     -0.12897714     -1.96431644
H      -0.56799254     -1.44145538      0.09390160
H      -0.55498342     -0.21048307      2.21429954
H      -2.03223557     -0.11098433      1.52677250
