13
b3lypvtz=-242075.96066472
C      -0.84215270      0.64666997      1.10445339
C      -0.67850537     -0.28465085     -0.04798719
C      -1.54773773     -0.54445106     -1.00891708
O       0.50868652     -1.05456203     -0.02910312
C       1.67439349     -0.44677939     -0.22310782
N       1.87023893      0.75719245     -0.49668151
F       2.63597314     -1.37344171     -0.08429806
H      -0.07859059      1.42376400      1.08412791
H      -1.82345646      1.11540545      1.06862636
H      -0.74830653      0.10252476      2.04724159
H      -2.50304652     -0.04204525     -1.02774300
H      -1.32567893     -1.26068760     -1.78601011
H       2.85818275      0.96106124     -0.60060139
