16
b3lypvtz=-204468.44359183
C      -2.70657669     -0.08665340      0.01785347
C      -1.32167334     -0.62958227     -0.33625170
C      -0.19755536      0.02419596      0.45393343
C       0.25861389      1.45926803      0.04839006
N       1.58078126      0.88671284     -0.22749677
C       1.24194043     -0.40529270      0.07770873
O       1.84866014     -1.44330677      0.03850924
H      -3.48347183     -0.58121445     -0.56684878
H      -2.93289174     -0.24657347      1.07416542
H      -2.77958110      0.98545772     -0.17733422
H      -1.13222984     -0.49875953     -1.40601610
H      -1.28587980     -1.70559307     -0.15072037
H      -0.37165374     -0.07076883      1.52739916
H       0.25092051      2.20267970      0.84624102
H      -0.24417988      1.85949057     -0.83405150
H       2.43193007      1.28384468     -0.59525010
