17
b3lypvtz=-191990.82877871
C      -3.31223935      0.23345689     -0.01140567
C      -2.01236439     -0.50134277      0.02289928
N      -0.88843065      0.09469597     -0.02508453
C       0.29658696     -0.62498327     -0.00779097
C       1.48430563      0.02192836     -0.00145325
C       2.79106382     -0.70792278     -0.01234716
N       1.56662694      1.39857311      0.08412531
H      -3.91651628     -0.08092483     -0.86813610
H      -3.90594390      0.01960859      0.88276764
H      -3.13990511      1.30656350     -0.07428820
H      -2.06640151     -1.59686970      0.09176387
H       0.27115180     -1.71269667      0.01205205
H       3.37570263     -0.46843088      0.87946869
H       3.39203179     -0.41772433     -0.88007262
H       2.63974971     -1.78453810     -0.05165885
H       0.68706808      1.86844602     -0.07513690
H       2.35510584      1.82846990     -0.37207460
