12
b3lypvtz=-254550.87003977
C      -2.15580981     -0.04739285      0.55827838
C      -0.90245234     -0.36127224     -0.20222883
O      -0.72659595     -1.34621686     -0.87827427
C       0.21163208      0.70742660     -0.19722383
O      -0.06337356      1.87600460     -0.31834179
C       1.64453831      0.20519493     -0.16504061
F       1.76366275     -0.80822865      0.77448699
H      -1.93152381     -0.01676456      1.62813461
H      -2.51976387      0.94335338      0.28333472
H      -2.90945580     -0.80566828      0.36256238
H       2.30618087      1.02698702      0.10578099
H       1.91689613     -0.19262709     -1.14551173
