17
b3lypvtz=-194365.81255417
C       2.94079059     -0.70639714      0.18755934
C       1.98418034      0.21366883      0.13870144
C       0.57528483     -0.08031554     -0.17869182
O      -0.12074460      0.89923881     -0.98287575
C      -0.52880776      0.72291780      0.37504495
C      -1.92501877      0.20487929      0.63715342
C      -2.36616174     -0.98175011     -0.21698330
H       2.73521585     -1.74959561     -0.02159200
H       3.96071403     -0.45159606      0.44080944
H       2.21306064      1.25568922      0.33776388
H       0.36600713     -1.10671055     -0.46367025
H      -0.24177939      1.55424665      1.01743672
H      -2.61421235      1.04100988      0.48146964
H      -1.99191191     -0.04594430      1.70033052
H      -3.42033156     -1.20137238     -0.04589728
H      -1.80203793     -1.88477124      0.02064217
H      -2.23425139     -0.76688657     -1.27744212
