14
b3lypvtz=-203673.35972096
C       2.39789823     -0.10929451     -0.34295177
C       1.10466802     -0.28736956     -0.07384765
N       0.37825871      0.15041378      1.04531832
C      -1.02818521      0.01439549      0.77558834
C      -1.57809532      0.65297791     -0.49297125
C      -1.07163666     -0.76220591     -0.49387805
O       0.26309789     -0.98015796     -0.90878595
H       3.03823110      0.40064654      0.35904712
H       2.81846865     -0.49777093     -1.25543537
H       0.69214268      1.02375763      1.43947848
H      -1.67080520     -0.19286909      1.61928198
H      -2.64957462      0.78840219     -0.55661617
H      -0.98201606      1.40806840     -0.98800495
H      -1.71245219     -1.60899398     -0.68414079
