12
b3lypvtz=-202898.35964222
C       3.38844392     -1.61090029     -0.40871658
C       2.34630294     -1.01084782     -0.44318734
C       1.14763416     -0.25678998     -0.55028911
N       0.14682948     -0.45067807      0.22732305
C      -0.98525816      0.31660170      0.06790640
C      -2.03684239      0.11735654      0.87898052
O      -3.20851274      0.78593599      0.84537974
H       4.29948435     -2.15330429     -0.35984422
H       1.12919969      0.50313138     -1.33999785
H      -1.02429712      1.08108592     -0.71386112
H      -2.00960499     -0.63458676      1.65477949
H      -3.19327912      1.44599568      0.14142704
