15
b3lypvtz=-216898.09859632
C      -0.62264670      0.60007320      1.01090436
C       0.60867153      1.00338429      0.20088017
C       0.01362033      0.33855884     -1.07474075
C      -1.24368139     -0.02903630     -0.28097935
O      -1.66402504     -1.37060176     -0.27308767
C       1.23687801     -0.19617046     -0.42652524
O       1.19965435     -1.48036489      0.16626211
H      -0.44671842     -0.09701328      1.83065367
H      -1.19734986      1.44643864      1.38234993
H       1.13556387      1.94364473      0.28230546
H       0.02376779      0.67696556     -2.10177192
H      -2.09933079      0.55572306     -0.61409054
H      -0.88828697     -1.90347385     -0.05731971
H       2.15447398      0.00056231     -0.97217774
H       1.78940932     -1.48869012      0.92733719
