17
b3lypvtz=-212877.87298852
C      -1.05999084     -0.73786790      1.42446881
N      -0.83285955     -0.29466210      0.05609258
C      -1.85874344      0.62565303     -0.42580663
C       0.48745454     -0.05340286     -0.30404694
N       0.70876757      0.26794602     -1.63481457
N       1.41599319     -0.13438128      0.58757472
N       2.73738299     -0.01461156      0.00162997
H      -0.91649046      0.06877609      2.15336412
H      -2.08434805     -1.10457749      1.50056241
H      -0.37002675     -1.53881233      1.67347806
H      -1.64223217      0.95913885     -1.43609807
H      -1.93593941      1.51596983      0.21400455
H      -2.82608275      0.12184318     -0.42611078
H       0.10646683     -0.22022015     -2.28051119
H       1.69401210      0.15619982     -1.84813763
H       3.34108042     -0.56504802      0.60090938
H       3.03545578      0.94805686      0.14344120
