16
b3lypvtz=-181138.19968543
C       2.63509842     -0.75927360      0.47009654
N       1.71576196     -0.66427040     -0.39030260
C       0.69259101      0.29580786     -0.23593904
C       0.96303143      1.60331834     -0.11653048
C      -0.65765990     -0.27817453     -0.34620968
C      -1.74903074      0.18559922      0.26204700
C      -3.11729910     -0.40288699      0.12782449
H       3.43993822     -1.47283143      0.31024517
H       2.66460092     -0.15434211      1.38201194
H       1.98155975      1.96177351     -0.07261569
H       0.17169765      2.33799777     -0.13105392
H      -0.72063563     -1.17547714     -0.95383843
H      -1.65883633      1.04968288      0.91399762
H      -3.11773935     -1.27730337     -0.52318222
H      -3.81905705      0.32818198     -0.28476662
H      -3.51678227     -0.69965798      1.10184594
