15
b3lypvtz=-193609.05816679
C       1.98774713     -0.22158398     -0.13170454
C       0.56160209      0.15211783     -0.51361205
C      -0.05770879      1.18707398      0.46627303
O       0.36700958      2.21394955      0.91971747
C      -1.19081209      0.29454883      0.84197880
C      -1.87655085     -0.23959150     -0.40786878
C      -0.55614918     -0.80511532     -0.05798716
H       2.65284729      0.62937616     -0.27792120
H       2.05231322     -0.51818999      0.91694665
H       2.35086811     -1.04980837     -0.74244922
H       0.50570565      0.42207426     -1.57120075
H      -1.66263696      0.22687522      1.81172546
H      -1.98348913      0.39613146     -1.27900446
H      -2.74399085     -0.85004305     -0.19450341
H      -0.40675523     -1.83781510      0.21961015
