16
b3lypvtz=-204445.52979473
C       3.44072206      0.61807322     -0.66523222
C       2.15462700      0.87728417     -0.44123314
N       1.24536212     -0.13603264     -0.12358035
C       0.03204782      0.19089216      0.07825892
C      -1.01302926     -0.82265569      0.42161117
C      -2.19717699     -0.80881708     -0.54041599
O      -2.85136324      0.45331994     -0.41923216
H       3.81551815     -0.39455342     -0.60454790
H       4.13449375      1.40932205     -0.91058200
H       1.77379123      1.89927642     -0.50090081
H      -0.30433842      1.23192533      0.00185912
H      -1.39955945     -0.61381292      1.42517337
H      -0.55441703     -1.81164743      0.43280079
H      -2.87892319     -1.62729063     -0.28357178
H      -1.84551930     -0.97093438     -1.56577822
H      -3.55223526      0.50575089     -1.07472880
