17
b3lypvtz=-217670.82577927
C      -1.75245811     -0.75395201     -0.06667431
C      -0.84414609     -0.06968413      0.92931236
C      -0.05592583      1.16532386      0.56535839
O      -0.00871812      1.60174725     -0.77426343
C       0.67519148     -0.11309057      0.84742938
C       1.41849933     -0.80451998     -0.27300489
O       2.58195183     -0.08107164     -0.66713757
H      -1.79934854     -1.82984219      0.11254316
H      -2.76959029     -0.36418147      0.01902894
H      -1.42709465     -0.59871633     -1.09360176
H      -1.23427475     -0.06776747      1.94092112
H       0.01391683      1.96751973      1.29287014
H      -0.81646748      2.08382299     -0.97684780
H       1.19940400     -0.14299391      1.79493462
H       1.77479068     -1.77793545      0.06669108
H       0.76690768     -0.97545373     -1.13203057
H       2.27726203      0.76079506     -1.02352885
