15
b3lypvtz=-214522.95004941
C      -2.23769570     -1.12628838      0.31598679
N      -1.14033790     -0.60788444     -0.50834176
C      -0.44535487      0.51979918     -0.10708466
O      -1.22632228      1.61080569      0.12395373
C       0.89513825      0.63521425      0.02796124
C       1.82086625     -0.47454682      0.02365018
N       3.09754673     -0.44100593      0.07708743
H      -2.79849148     -1.85888936     -0.26175023
H      -2.91626990     -0.32058563      0.58685118
H      -1.88412165     -1.59520553      1.24018682
H      -0.52955479     -1.33399718     -0.84897214
H      -2.02183051      1.54143818     -0.41872377
H       1.29039422      1.63432056      0.15876654
H       1.38103592     -1.47629722     -0.01262540
H       3.42785169      0.52618663      0.11152505
