16
b3lypvtz=-181109.86711185
C       1.90275441     -1.67288003      0.02328840
C       1.09161695     -0.78937257     -0.03312478
C       0.13043477      0.27971795     -0.12168918
C      -1.26306920     -0.11143535     -0.59267593
N      -1.89275157     -1.05245186      0.32982713
C       0.23746444      1.40911285      0.89196856
C       0.64922896      1.64709726     -0.52844145
H       2.61106207     -2.46056204      0.08069013
H      -1.83385048      0.81656283     -0.74486530
H      -1.18266961     -0.59968436     -1.56633683
H      -2.77670325     -1.37992564     -0.03881740
H      -2.08256794     -0.61001477      1.22127328
H      -0.68917787      1.85040471      1.23489533
H       1.00941455      1.33340860      1.64324337
H       0.00670841      2.25033002     -1.15552208
H       1.70355935      1.72824840     -0.74708626
