11
b3lypvtz=-210599.94669323
N       2.63960429     -0.33395439     -0.00001194
C       1.69145913      0.50856508     -0.00002851
C       0.25158964      0.22814165     -0.00006852
N      -0.24896201     -1.01322097      0.00003630
N      -1.55100620     -0.81851432      0.00001775
H      -2.20070189     -1.58793491      0.00016669
N      -1.96704389      0.44012641     -0.00024395
C      -0.83048898      1.12909054      0.00004930
H       2.26985595     -1.28749106     -0.00000459
H       1.95039452      1.56857155     -0.00000862
H      -0.83268355      2.20539541      0.00028010
