18
b3lypvtz=-202800.8994139
C      -0.27833506      2.14602073     -0.35116901
N       0.15042838      1.05224982      0.52660270
C       0.08321614     -0.25646061     -0.04445664
C       1.20767948     -0.97685362     -0.16505881
N       2.49917462     -0.49067169      0.07545272
N      -1.16751997     -0.68504705     -0.57034623
C      -2.23010461     -0.94395717      0.39873539
H      -1.29600591      2.02951746     -0.73863688
H       0.39954207      2.20413839     -1.20359790
H      -0.21289816      3.08676113      0.19683932
H      -0.34293855      1.09584317      1.40993251
H       1.16370264     -1.98116246     -0.57056492
H       3.11023535     -1.16214239      0.51696498
H       2.46696355      0.37482199      0.59881588
H      -1.04770724     -1.46723053     -1.19834048
H      -2.45895638     -0.02984532      0.94881564
H      -3.13722055     -1.23882072     -0.12920840
H      -1.97917281     -1.72435912      1.13145615
