17
b3lypvtz=-215288.26280633
C       0.30759223      1.66867176     -0.31692184
C      -0.09299400      0.23383938      0.03077800
N      -0.13013238      0.05962751      1.48101977
C      -1.42296123     -0.08726640     -0.63688986
O      -2.35112009     -0.62035473     -0.08307668
C       0.93948292     -0.79694198     -0.54692836
N       2.29744790     -0.66856702     -0.05067555
H      -0.40782272      2.38565202      0.09145947
H       1.28685075      1.89550125      0.10346983
H       0.35255876      1.81682763     -1.39703500
H      -0.55553251      0.86748569      1.92148597
H      -0.73425105     -0.72559276      1.70526849
H      -1.48318701      0.16780989     -1.71674952
H       0.57461272     -1.79521440     -0.29092628
H       0.95333784     -0.73505840     -1.63731982
H       2.27296041     -0.56563620      0.95829839
H       2.75596145      0.15012176     -0.42968499
