19
b3lypvtz=-195138.52334658
C      -3.09697550      0.08809631     -0.37561114
O      -1.69009909     -0.09077455     -0.42988840
C      -1.04461539     -0.01899159      0.77086228
C       0.28028643      0.02300090      0.87946916
C       1.26557034      0.02509508     -0.25669988
C       2.12744370     -1.24751914     -0.23890669
C       2.14944743      1.28108055     -0.21200372
H      -3.47231155     -0.06044463     -1.38534579
H      -3.56494054     -0.64323674      0.29105409
H      -3.35767733      1.09672046     -0.04069788
H      -1.68934657     -0.01691571      1.64476289
H       0.68129500      0.05036758      1.88691083
H       0.70199891      0.03866769     -1.19158175
H       1.50915461     -2.14235757     -0.31819311
H       2.83776034     -1.24857207     -1.06873497
H       2.70012722     -1.31766063      0.68959916
H       2.85846148      1.28858720     -1.04276370
H       1.54774239      2.18895555     -0.26960469
H       2.72486511      1.31996430      0.71674931
