17
b3lypvtz=-191983.97406602
C      -2.35654594      1.28848130     -0.02929981
C      -2.39240687     -0.21846727      0.22321806
C      -1.20034394     -0.97513329     -0.39276225
C       0.10041938     -0.64949234      0.26249106
N       1.10728019     -0.20046811     -0.37244069
C       2.27387092      0.05418254      0.37603211
N       3.35079910      0.49944138     -0.11202432
H      -3.22306115      1.77913742      0.41604379
H      -1.46113965      1.74817719      0.39280596
H      -2.36207111      1.50658901     -1.09908114
H      -3.31169077     -0.63792553     -0.19090495
H      -2.42752376     -0.41472780      1.29907853
H      -1.37156876     -2.05111237     -0.27201894
H      -1.11828570     -0.77106190     -1.46092633
H       0.14883878     -0.81967150      1.34899213
H       2.22638865     -0.15291607      1.45151389
H       3.23356564      0.63875333     -1.11838410
