15
b3lypvtz=-214527.42316285
N       2.10049109     -0.33671632      0.09910099
C       0.68883244     -0.14433389      0.07238680
C      -0.42569160     -1.13610737      0.32388021
C      -1.67279127     -0.22197890      0.23017954
N      -1.23001797      0.92975135     -0.59256413
C       0.15209608      0.96993225     -0.44779162
O       0.79990343      2.06310961     -0.89125467
H       2.40869115     -1.08140739     -0.51914701
H       2.44934095     -0.55380274      1.02553795
H      -0.37208608     -1.63865126      1.29296972
H      -0.45353550     -1.92334850     -0.44239774
H      -2.53141227     -0.71111155     -0.22689469
H      -1.95739520      0.11293180      1.23305574
H      -1.69808405      1.80429075     -0.39667002
H       1.74175879      1.86724216     -0.76039106
