19
b3lypvtz=-192739.50812317
C      -0.86257721      1.66940263     -0.33088475
C      -0.30647001      0.46822351     -0.11077475
N      -1.01439152     -0.66752071      0.24732835
C      -2.46049679     -0.68868535      0.19211044
C       1.20721150      0.28171572     -0.18118487
C       1.81979789      0.05164297      1.20246092
N       1.66142789     -0.78663785     -1.08343310
H      -1.92628114      1.84517577     -0.27104899
H      -0.23530794      2.52048833     -0.54997170
H      -0.57664829     -1.52663650     -0.04348375
H      -2.81255812     -1.68860388      0.44090455
H      -2.87635274      0.00560235      0.92463083
H      -2.85618899     -0.41033172     -0.79354493
H       1.60790395      1.21586697     -0.57802567
H       2.90381210     -0.02978372      1.12018274
H       1.43633817     -0.86613457      1.65288223
H       1.57626866      0.87605108      1.87135128
H       1.55607790     -1.70638194     -0.67253425
H       1.16234869     -0.77034310     -1.96428857
