13
b3lypvtz=-211337.97508722
C      -1.64245068     -1.39656778     -0.20584666
C      -0.51352605     -0.36984163     -0.32622824
C      -0.99993308      0.98926495     -0.01653318
N      -1.41197591      2.02953958      0.25071456
N       0.59884695     -0.75770955      0.53676890
N       1.83293062     -0.23480352      0.42644790
N       2.02016471      0.43859674     -0.60595051
H      -2.47438885     -1.12062301     -0.85130095
H      -2.01552748     -1.45077838      0.81770884
H      -1.27358313     -2.37773478     -0.50036862
H      -0.12600550     -0.34697156     -1.34464554
H       0.39256841     -1.04006916      1.48139903
H       2.99982497      0.72519612     -0.57616854
