16
b3lypvtz=-181142.99328678
C      -1.04685227      1.48207621      0.36345181
C      -0.28242374      0.24406541     -0.02937362
C       1.09897818      0.38473017     -0.66065356
C       1.82101956     -0.83141771     -0.12020868
N       1.17166654     -1.55065755      0.70297075
C      -0.15365388     -0.98847875      0.85276118
C      -1.01663556     -1.02556296     -0.38235409
H      -0.43996513      2.13802116      0.99231991
H      -1.35612903      2.05523724     -0.51456742
H      -1.94916817      1.22777173      0.92186045
H       1.08235890      0.39485982     -1.75414587
H       1.60224923      1.30563261     -0.34568816
H       2.83480526     -1.09446610     -0.40880502
H      -0.60614598     -1.08358520      1.82998110
H      -2.08927295     -1.02530577     -0.23764999
H      -0.67083098     -1.63292031     -1.20989878
