16
b3lypvtz=-204450.51993205
C      -3.02114795     -0.05361720      0.04431106
C      -1.66603569     -0.47387302     -0.43761848
C      -0.51937133      0.02204446      0.02837390
N       0.76720123     -0.40860885     -0.30484289
C       1.84254999      0.56124898     -0.37298141
C       3.18622044     -0.07894140     -0.07770506
O       4.22645494      0.28448215     -0.55840325
H      -3.56404814     -0.88476301      0.50468767
H      -3.64511277      0.31143872     -0.77651262
H      -2.94826513      0.74286567      0.78672649
H      -1.63296711     -1.24881851     -1.19926431
H      -0.52937077      0.80385964      0.78204181
H       0.77756957     -1.07005056     -1.06857438
H       1.68022818      1.30702474      0.41311400
H       1.91055181      1.10855943     -1.32060221
H       3.13554272     -0.92265125      0.64174969
