10
b3lypvtz=-251379.55617845
C      -2.02970776     -0.42444249     -0.45267511
N      -1.07535878      0.40505325     -0.32767334
C       0.19436454     -0.16697889     -0.00810865
O       0.42869288     -1.33884704      0.15036641
C       1.32528688      0.84002300      0.13533491
N       2.51176080      0.56666856      0.40986060
F       0.95882698      2.10604405     -0.05963633
H      -3.01786101     -0.04352854     -0.69509108
H      -1.90281170     -1.50211242     -0.32775163
H       2.60680715     -0.44187949      0.52370922
