13
b3lypvtz=-216163.80396528
O       2.63341587     -0.34620377     -0.00008684
C       1.78565835      0.51900594      0.00002139
C       0.34921725      0.25089627      0.00003945
C      -0.61582477      1.17228607      0.00008383
C      -1.95343593      0.50856573      0.00004815
O      -1.67819751     -0.89100659     -0.00002717
C      -0.26290220     -1.12225684     -0.00002804
H       2.06401475      1.59174785      0.00000486
H      -0.47428579      2.24434525      0.00013717
H      -2.54724186      0.77745278     -0.88334064
H      -2.54724128      0.77735928      0.88346616
H       0.02242144     -1.70186326     -0.88344511
H       0.02240867     -1.70194671      0.88333879
