17
b3lypvtz=-171060.52435442
C       3.61544902     -0.75812582     -0.07001744
C       2.33451905     -0.06527777     -0.03457366
C       1.27846362      0.50749358     -0.01116140
C      -0.01805989      1.18573678      0.02867075
C      -1.15432407      0.26540477      0.40387332
C      -2.23536813      0.06108048     -0.33846730
C      -3.37385722     -0.84227475      0.02277208
H       4.26349547     -0.43502583      0.74750456
H       4.14128578     -0.56531701     -1.00759748
H       3.48088225     -1.83832186      0.01866299
H       0.03978245      2.00757462      0.75216910
H      -0.22427026      1.64619205     -0.94132553
H      -1.04599919     -0.25256903      1.35232597
H      -2.31957921      0.57930848     -1.29086434
H      -4.31570297     -0.28913711      0.07654059
H      -3.21036149     -1.32795043      0.98513694
H      -3.51216820     -1.62130617     -0.73209317
