12
b3lypvtz=-221397.65092393
C      -2.53682685     -0.82558649      0.45372178
N      -1.39727546     -0.79585683      0.99732421
C      -0.50713513      0.22742527      0.62418150
N      -0.86963635      1.44209292      0.57798763
N       0.80727137     -0.31487642      0.44751001
N       1.54750089      0.43677041     -0.22365661
N       2.79591323      0.00581258     -0.32490704
H      -2.83993556     -0.12422725     -0.32741993
H      -3.25517124     -1.57478418      0.77725375
H      -0.07111896      2.03712589      0.35955517
H       2.99365986     -0.94562277     -0.03278517
H       3.33275421      0.43172688     -1.05916095
