17
b3lypvtz=-171047.97821866
C       1.96213013     -1.54348495      0.09896839
C       1.17851596     -0.63263343      0.07827209
C       0.26922549      0.48262695      0.03390069
C       0.86339420      1.75661563     -0.54576177
C      -0.74548118      0.61427514      1.16079132
C      -1.21297032      0.20771857     -0.20464140
C      -1.74630807     -1.17759231     -0.46954856
H       2.65076493     -2.35037535      0.12256844
H       1.72071233      2.08828990      0.04222227
H       0.12229107      2.55707371     -0.54822843
H       1.19896877      1.59843171     -1.57189884
H      -0.95662089      1.61458136      1.51480882
H      -0.72806139     -0.14419066      1.93129443
H      -1.69886322      0.98846152     -0.77906461
H      -2.80219788     -1.23959988     -0.19715109
H      -1.65685663     -1.43994550     -1.52553140
H      -1.20463132     -1.92874141      0.10453565
