11
b3lypvtz=-236266.19710731
C      -1.50476219     -0.38887963      0.01070247
O      -1.44476289      1.03586307      0.24388424
C      -0.12502524      1.34952862      0.29054323
C       0.64114908      0.26805428      0.11157342
O      -0.16359314     -0.85630225     -0.06915466
N       2.00918692      0.20489343      0.09730951
N       2.58684279     -0.89313030     -0.08279399
H      -2.02139370     -0.86346507      0.84773294
H      -2.02576677     -0.57198900     -0.93154428
H       0.14906954      2.37500490      0.45693850
H       1.89905559     -1.65957804     -0.20532415
