10
b3lypvtz=-248950.28840328
N      -0.04272949      0.30083277     -1.35966527
C      -0.01510733      0.03114940     -0.13109842
N       1.17622604     -0.39275305      0.63609679
N       2.17708363     -0.45414270     -0.08243736
C      -1.27563862      0.13208834      0.67498310
N      -2.40804884      0.46474857      0.27247631
F      -1.09766019     -0.18211823      1.96342768
H       0.89314767      0.18378570     -1.76145755
H       2.96111771     -0.75316428      0.51247233
H      -2.36839056      0.66967347     -0.72489760
