16
b3lypvtz=-204383.11312791528
C      -1.08964219      0.25877535      1.31320900
N      -0.68492190      0.31050569     -0.12396471
C      -0.68685773     -1.05092240     -0.83152451
C       0.80562440      0.38552007     -0.34616587
C       1.51345586      1.49550507     -0.30095461
C       0.89013167     -1.17421630     -0.49843676
O       1.13220487     -1.75096726      0.64656376
H      -0.88486422      1.22549871      1.76881355
H      -0.47982238     -0.52422067      1.76185811
H      -2.15236208      0.02684878      1.37102102
H      -1.20500822      1.03434692     -0.61262650
H      -0.96672653     -0.88887020     -1.87309316
H      -1.32616029     -1.77098229     -0.32949775
H       1.09046560      2.45983276     -0.04232114
H       2.57352130      1.45812821     -0.51156639
H       1.47096182     -1.49478245     -1.39131403
