17
b3lypvtz=-220276.585225
C      -0.75000294      1.04144968      0.99384591
C      -0.48456261      0.01863755     -0.09047824
C      -1.64295500     -0.52097888     -0.84368595
N      -0.92954864     -1.37002542      0.13029284
C       0.86084053      0.10499560     -0.79474418
C       2.04513225     -0.31359848      0.05348520
F       2.30644840      0.62936338      1.05914840
H      -0.02710468      0.95339146      1.80473713
H      -0.67483055      2.05662498      0.59785357
H      -1.75350169      0.91623350      1.40533157
H      -1.52984457     -0.82155489     -1.87867631
H      -2.63070100     -0.15695303     -0.58572231
H      -1.46410205     -1.43514335      0.99048794
H       1.02682541      1.11845061     -1.17101686
H       0.84349584     -0.56080439     -1.66117087
H       1.85378792     -1.27053087      0.54156323
H       2.95062341     -0.38955745     -0.55125108
