18
b3lypvtz=-202792.47973024
C      -1.64637079     -1.75809250     -0.09851893
N      -1.66836425     -0.37500574      0.36152876
C      -0.66996018      0.49125747     -0.27203307
C      -1.04096548      1.95518589     -0.01962764
C       0.68913459      0.18678713      0.29701687
N       1.67435928     -0.09296085     -0.45301106
N       2.91394081     -0.25251682      0.12249624
H      -2.44640960     -2.31542451      0.38935638
H      -0.70062690     -2.22584142      0.17822542
H      -1.76045364     -1.86708952     -1.18792252
H      -2.58979839      0.01865253      0.21897241
H      -0.60585644      0.32393972     -1.35732666
H      -2.01976594      2.18348555     -0.44863482
H      -0.30873445      2.62061954     -0.47555413
H      -1.08275150      2.16243615      1.05123521
H       0.78202247      0.23590686      1.38920837
H       3.47680703     -0.87054731     -0.44168238
H       2.89398037     -0.54893216      1.09578255
