16
b3lypvtz=-181111.02786005
C       2.25835716      0.11996826      0.20146519
C       0.78434657     -0.06100125      0.25257602
C      -0.05428509     -0.36326962      1.24402482
C      -1.40783819     -0.41741199      0.53340038
C      -1.34082397      0.87573577     -0.33741507
C      -0.17634321      0.03485373     -0.94576053
N      -1.00614266     -1.22414399     -0.70297212
H       2.52733118      1.10972860     -0.17974561
H       2.72023393     -0.61110531     -0.46871264
H       2.70596348      0.00454106      1.18876498
H       0.13841624     -0.55748741      2.28717919
H      -2.29105173     -0.72654625      1.08580892
H      -2.18949787      0.98307037     -1.01654999
H      -1.10704677      1.82362927      0.14970936
H       0.23410338      0.20034805     -1.93936098
H      -1.79572246     -1.19100929     -1.35251190
