10
b3lypvtz=-202158.52606663
C      -1.74149321      0.37270429     -0.44562296
C      -0.86033087     -0.37570072      0.51752582
O      -1.26845189     -1.03122222      1.44781491
C       0.57820544     -0.27653975      0.27552760
C       1.76765410     -0.20223631      0.08570635
C       3.11454365     -0.12088191     -0.12574682
N       4.25375950     -0.04855802     -0.30952017
H      -2.78348612      0.22796621     -0.17182000
H      -1.56741313      0.01836349     -1.46396542
H      -1.49298746      1.43610492     -0.43033414
