13
b3lypvtz=-213722.4331325
C       2.18571409     -0.61611027     -0.15071806
C       1.12113168      0.04817354      0.29033988
C      -0.26939012     -0.40890209      0.14979123
N      -1.36039068      0.47067400      0.05700734
C      -1.21371216      1.71577782     -0.13570842
N      -0.50881514     -1.68027820      0.14260321
O      -1.81055031     -2.05110755     -0.00747182
H       2.08479036     -1.55345892     -0.68049423
H       3.18584467     -0.24290454      0.02313184
H       1.26093745      0.98988248      0.80984745
H      -2.09937389      2.34212453     -0.19478400
H      -0.24615211      2.20585221     -0.25658742
H      -2.33003387     -1.21972299     -0.04675702
