16
b3lypvtz=-181127.09333878
C      -1.98525670     -1.39036316      0.13284864
C      -0.97089156     -0.29825933     -0.10552788
C       0.35593714     -0.50576946      0.07094804
N       1.35951714      0.38293136     -0.20093285
C       2.65426919      0.27499211      0.44215831
C      -1.43472790      0.96640257     -0.54867706
C      -1.82203356      2.04711447     -0.92065380
H      -1.49912151     -2.29452020      0.50143624
H      -2.73432383     -1.08504072      0.86731398
H      -2.52191653     -1.64742152     -0.78411833
H       0.69776082     -1.47217064      0.42489854
H       1.05175853      1.31738926     -0.42681108
H       2.65042333      0.59775438      1.49066758
H       2.99297514     -0.76131987      0.40936114
H       3.38185566      0.87789096     -0.10013831
H      -2.17622536      2.99038978     -1.25277314
