13
b3lypvtz=-213734.8392207
C      -1.02582404     -0.95511362      0.07279030
C       0.27370231     -0.20837001     -0.26863757
C       1.66530334     -0.64289787     -0.30098798
O       0.96007917     -0.25914936     -1.49625401
C      -0.37185990      1.04210421      0.31482773
N      -0.18770794      2.28872469      0.35439492
N      -1.41870538      0.26817685      0.80126347
H      -1.62453115     -1.17198926     -0.81444788
H      -0.93985909     -1.84389809      0.69809748
H       1.89547648     -1.70021189     -0.22139606
H       2.44794191      0.04023074      0.01178195
H       0.68383714      2.54103082     -0.10499441
H      -2.35785286      0.60136279      0.95356207
