10
b3lypvtz=-220646.54508818
C      -1.61533385     -1.12705330      0.00735235
N      -1.93629698     -2.23146044      0.00482576
C      -1.21186280      0.27099375      0.00915178
N      -2.11449904      1.16039178      0.06309251
N       0.16241218      0.58305125     -0.04961273
N       0.90415152     -0.43419944     -0.09900103
N       2.17993310     -0.16163523     -0.15318865
H      -1.67612520      2.08334009      0.05610234
H       2.50033207      0.79997754     -0.15407886
H       2.80728900     -0.94340602     -0.19541793
