12
b3lypvtz=-252166.18156674
C      -0.88344520      1.09778675     -0.15198544
N      -0.19202512     -0.19389831     -0.18265371
C      -0.92024534     -1.36045987     -0.40037998
O      -2.11430005     -1.37576614     -0.56990376
C       1.17414485     -0.18511719      0.00996068
N       1.85226623      0.84780630      0.20736806
F       1.70266910     -1.43340178     -0.03949080
H      -0.48566566      1.74987807     -0.92667578
H      -1.93647552      0.90159640     -0.32213216
H      -0.73448853      1.57547508      0.81409471
H      -0.30036182     -2.26165093     -0.40216780
H       2.83792704      0.63775161      0.32471872
