14
b3lypvtz=-201297.87832421
C       2.44944390     -0.45215446      0.00715677
N       1.05102432     -0.08352681      0.00043766
C      -0.03018927     -0.91674489     -0.00457673
C      -1.15247774     -0.11052877     -0.00403255
N      -2.50162792     -0.49562628     -0.08451917
C      -0.63406197      1.20111946     -0.00058598
N       0.69869252      1.20307192      0.00449133
H       2.95017588     -0.05086712     -0.87386150
H       2.93972940     -0.06212464      0.89915732
H       2.52851953     -1.53685454      0.00051092
H       0.07771640     -1.98760215     -0.01459871
H      -3.12337850      0.18503200      0.32709275
H      -2.68257032     -1.39966627      0.32668332
H      -1.17567223      2.13373454     -0.00459542
