14
b3lypvtz=-227018.58216555
C      -0.40041337      1.85697039     -0.39940549
C      -0.31407224      0.32427152     -0.42686366
C      -1.36164206     -0.28369533      0.49402004
N      -2.29439762     -1.07600509      0.18295708
C       1.05366357     -0.14250067      0.04495169
O       1.66561846      0.32735856      0.96865566
O       1.50365128     -1.19299249     -0.67742872
H      -1.39535157      2.18305345     -0.70131635
H      -0.19447893      2.23302121      0.60158440
H       0.32819245      2.29675824     -1.08052366
H      -0.47967230     -0.05578025     -1.43520284
H      -1.28587953      0.03228620      1.53717677
H      -2.26786353     -1.31117842     -0.81190414
H       2.35261338     -1.45889134     -0.29170479
