12
b3lypvtz=-221382.62911896
C      -3.35875140      0.12761145     -0.00000451
N      -2.23621415     -0.47025956      0.00001584
N      -1.11525244      0.28742247      0.00000959
C       0.10632042     -0.29437252      0.00000958
N       1.16859483      0.42900737     -0.00000552
N       2.29128902     -0.40048287      0.00003802
N       3.33973942      0.26080616      0.00000976
H      -3.46321130      1.21415404     -0.00000057
H      -4.25056758     -0.48288284     -0.00001575
H      -1.16668870      1.30236195     -0.00000426
H       0.10595775     -1.38134055     -0.00000106
H       4.09296614     -0.43646611     -0.00009913
