16
b3lypvtz=-202010.94996988
N       1.45434532     -1.51976706      0.43215746
C       0.99543574     -0.44277580     -0.40139225
C      -0.37002917     -0.45621347     -1.01371026
N      -1.30169958     -1.03149841     -0.02152579
C      -1.04247785      0.12865715      0.89988108
C       0.03957376      0.66965494     -0.03013080
N       0.37771533      2.04881111     -0.09110570
H       1.92045670     -1.18109764      1.26489811
H       0.65849841     -2.07906201      0.71983779
H       1.74719436     -0.08656066     -1.10267162
H      -0.55958021     -0.50058283     -2.07819426
H      -2.25419789     -1.01504025     -0.36227951
H      -1.89520367      0.80665792      0.96618258
H      -0.73394439     -0.15934141      1.90825318
H       1.27931029      2.20989524     -0.51803890
H      -0.31529714      2.60826319     -0.57216111
