13
b3lypvtz=-234654.5748606
N      -2.66642768     -0.41811510      0.10093037
C      -1.47698968      0.04086333     -0.00267384
N      -1.06074231      1.34008256     -0.10588203
N      -0.45743079     -0.92169534     -0.07123279
C       0.90460997     -0.78732794     -0.03483433
N       1.52228781      0.32852776      0.02816703
O       2.92122396      0.10362850      0.04769031
H      -3.35620542      0.32622805      0.11477249
H      -0.07647624      1.53870409      0.01555274
H      -1.72066643      2.04975473      0.15601382
H      -0.82628210     -1.85739979     -0.05176628
H       1.45254588     -1.72538007     -0.06606402
H       3.27635002      0.99691521      0.06834754
