20
b3lypvtz=-182675.40510672
C       2.26948444     -1.43812964     -0.00247182
C       1.80243188     -0.04898636      0.43156298
C       0.64133047      0.54386254     -0.39955094
C       0.39897038      1.99962603      0.00615969
C      -0.59552492     -0.31850577     -0.34123323
C      -1.80022038      0.04950421      0.10034684
N      -2.96281785     -0.72511009      0.05816959
H       3.13867210     -1.75449485      0.57686744
H       2.55610822     -1.44678839     -1.05717566
H       1.49337203     -2.19149458      0.13776075
H       2.64936774      0.64152855      0.37046513
H       1.49892086     -0.07541752      1.48285079
H       0.98366998      0.55151887     -1.44424270
H      -0.37355395      2.46585378     -0.60704438
H       1.31366811      2.58317098     -0.10885550
H       0.09160357      2.07547623      1.05213245
H      -0.48306121     -1.33203913     -0.71720980
H      -1.97301179      1.05104155      0.47485750
H      -3.60742992     -0.55701225      0.81479738
H      -2.80655176     -1.71344113     -0.07538050
