14
b3lypvtz=-224571.11809028
C      -1.44548544     -1.57306800      0.45023164
O      -0.09544954     -1.14379729      0.28117112
C       0.09858371      0.16376635     -0.03657893
N      -0.89319369      0.95493796     -0.18350272
N      -0.64634599      2.28929958     -0.40214866
N       1.41860961      0.56980969     -0.20395655
C       2.37877042     -0.22448643      0.04846868
H      -2.01427004     -1.44058144     -0.47089402
H      -1.93564169     -1.01006173      1.24510577
H      -1.38845363     -2.62721614      0.71023170
H       0.27767618      2.47321543     -0.78273429
H      -1.38752308      2.67873637     -0.96414125
H       2.23882558     -1.23836806      0.42032612
H       3.39389758      0.12781371     -0.11157860
