13
b3lypvtz=-213769.94973746
C      -3.31432340      0.10985449     -0.17368321
C      -1.88576882      0.23873280      0.22210966
N      -1.02103961     -0.64888828     -0.04544876
C       0.31422582     -0.47442605      0.22408077
N       0.97371426      0.55003299     -0.16439100
C       2.36049708      0.53171577      0.00848829
O       3.08564936     -0.41440132     -0.18142057
H      -3.48715695     -0.81661393     -0.71616163
H      -3.95732698      0.14412097      0.70988831
H      -3.60052312      0.96007172     -0.79915499
H      -1.59561998      1.14230643      0.76859332
H       0.78836313     -1.30947417      0.74342460
H       2.75054822      1.52051459      0.29990421
