18
b3lypvtz=-205199.96623742
C       2.15006534     -0.89632116      0.26801055
C       1.14927039     -0.22045695     -0.67216504
C      -0.04793002      0.37505287      0.03916857
C      -1.02514126     -0.57987097      0.69389266
N      -1.58000682     -1.50015832     -0.30128400
C       0.00488034      1.76045542      0.51753554
O      -0.70516361      1.44143492     -0.68405885
H       1.70787928     -1.75329378      0.77803614
H       2.51525332     -0.20385572      1.02963678
H       3.01327188     -1.26088171     -0.29021145
H       0.78528876     -0.94430770     -1.40298318
H       1.63786287      0.58222210     -1.22753933
H      -0.50111386     -1.17047333      1.44921979
H      -1.78255375      0.01768838      1.21683854
H      -2.17120483     -2.19167955      0.14227812
H      -2.16180745     -0.98666684     -0.95359012
H       0.91355266      2.33800670      0.37603088
H      -0.61498323      2.07318466      1.35269738
