16
b3lypvtz=-225365.05826238
N      -1.79984727     -1.11871433     -1.16721579
C      -1.70932332     -0.26080028     -0.23257064
N      -2.71869370      0.46029671      0.38300516
O      -0.53182247      0.03725960      0.35339372
C       0.62335041     -0.66599228     -0.12086238
C       1.84676501     -0.10739444      0.57655252
N       2.13493759      1.26418958      0.15347193
H      -2.75736142     -1.22522680     -1.48574608
H      -2.40858751      1.28507013      0.87253160
H      -3.54904360      0.59781259     -0.16759434
H       0.69308152     -0.55528535     -1.20487360
H       0.50871879     -1.73049755      0.09195488
H       2.67002278     -0.81446624      0.39505312
H       1.66445050     -0.10123067      1.65312295
H       2.88357468      1.65766271      0.71009687
H       2.44977803      1.27751662     -0.81011994
