19
b3lypvtz=-171819.98751822
C      -2.90866244     -0.89520443      0.13194663
C      -1.91097094     -0.04809701     -0.01014422
C      -1.33123377      1.25795636      0.31556604
C      -0.58442918      0.23368356     -0.55922638
C       0.65497627     -0.46546187     -0.03674323
C       1.93795876      0.34547129     -0.23715088
C       3.18374425     -0.36568396      0.28951669
H      -2.88976723     -1.87254011     -0.33580845
H      -3.78400036     -0.64508844      0.71952918
H      -1.73109361      2.14577316     -0.16062986
H      -0.96054421      1.42121682      1.32210929
H      -0.54696639      0.48049405     -1.61736564
H       0.51863596     -0.68517332      1.02666150
H       0.75636767     -1.43517453     -0.53543597
H       2.06274461      0.56153848     -1.30278103
H       1.83018568      1.31464175      0.25821273
H       3.10143601     -0.56428562      1.36053707
H       3.33343231     -1.32453980     -0.21192967
H       4.08162459      0.23409461      0.13214920
