10
b3lypvtz=-246398.3466738
C      -0.90884872     -0.14203955     -0.00023569
N      -0.62100132      1.16245545     -0.01618537
N       0.74964337      1.33585710     -0.01532564
C       1.15837839      0.09034400      0.00148998
N       0.18627772     -0.86968830      0.01143168
O       2.46251267     -0.21937632      0.00838313
O      -2.17097525     -0.58167825      0.00252500
H      -1.24172208      1.95166376     -0.02762374
H       2.52885303     -1.18098989      0.02068927
H      -2.14311779     -1.54654801      0.01485138
