20
b3lypvtz=-182663.07921423
C      -1.48692619      1.25242399      0.57831896
C      -1.18522578      0.13366885     -0.41587230
N      -2.01124849     -1.03314837     -0.06537120
C       0.27633975     -0.31284314     -0.45531733
C       1.41499503      0.70017628     -0.74962606
C       2.31485630     -0.09622330      0.23042749
C       1.03507075     -0.73149099      0.83244528
H      -0.89386123      2.14392468      0.37356532
H      -2.53875836      1.54027897      0.51247289
H      -1.29661801      0.92872883      1.60179446
H      -1.41921177      0.51913709     -1.42216071
H      -1.89144463     -1.77199921     -0.74923613
H      -2.99474264     -0.78776716     -0.06844586
H       0.34838407     -1.12967535     -1.18139620
H       1.74770724      0.80044735     -1.78282763
H       1.18896751      1.69374225     -0.36128914
H       2.95832110      0.47478058      0.89890817
H       2.92578465     -0.83319371     -0.29185346
H       0.68789867     -0.18133445      1.70672633
H       1.05681803     -1.79136418      1.08000412
