17
b3lypvtz=-191965.79059222
C      -1.69318886      1.23992334      0.05646276
C      -0.88893659      0.29811783      0.93895879
C      -1.19795351     -1.22649964      0.84825165
N       0.25606235     -1.49172889      0.66930485
C       0.51049965     -0.09535109      0.50189145
C       1.60740062      0.53440641      0.09225328
N       2.77587858     -0.13379453     -0.35012150
H      -2.73067107      1.30232751      0.39423482
H      -1.27782270      2.24920409      0.07987742
H      -1.69018876      0.90298769     -0.98140230
H      -0.91681524      0.64662737      1.97443443
H      -1.62500149     -1.70013097      1.73278489
H      -1.80513391     -1.47873020     -0.02498292
H       0.52299932     -2.10562275     -0.09169502
H       1.61702458      1.61295277      0.01828597
H       2.93504300     -0.99765153      0.15388555
H       3.60080404      0.44276256     -0.27062412
