19
b3lypvtz=-192723.58833332
N       3.32072567      0.05894467      0.30368848
C       2.07233397     -0.69672476      0.16695350
C       0.91721993      0.24289274     -0.16001041
N      -0.33206372     -0.49772352     -0.31307732
C      -1.48458644      0.32638085     -0.55116820
C      -2.83379721     -0.25867330     -0.25237989
C      -2.25957951      0.80951747      0.64384242
H       4.10693498     -0.57093626      0.40574041
H       3.29744467      0.62588370      1.14394550
H       1.80062166     -1.28811689      1.05101228
H       2.20190433     -1.40340107     -0.65829831
H       1.18408234      0.83590406     -1.04720320
H       0.78393053      0.95267883      0.66192130
H      -0.23870587     -1.17976509     -1.05763700
H      -1.43522078      1.01707833     -1.39416824
H      -3.66002097     -0.00131533     -0.90019014
H      -2.84973857     -1.26880242      0.13165646
H      -2.69340193      1.79916546      0.61115709
H      -1.89818307      0.49711252      1.61331528
