16
b3lypvtz=-181135.52056511
C      -2.20714160     -0.45078049     -0.54233528
C      -1.00549367     -0.03844910     -0.16367251
C      -0.10966709      0.91249647     -0.94271965
C       1.28297287      0.62638577     -0.42032837
C       1.18068124     -0.20246952      0.80517419
C      -0.28028758     -0.47027419      1.10171679
N       1.62996180     -0.80881276     -0.46474531
H      -2.78432604     -1.14387978      0.05693138
H      -2.65795883     -0.11349559     -1.46732778
H      -0.20030234      0.76885356     -2.02029434
H      -0.37118894      1.95349723     -0.72283951
H       2.07048667      1.35770484     -0.54753751
H       1.88970430     -0.10607274      1.61706000
H      -0.48196262     -1.51258649      1.35253447
H      -0.59451392      0.14351059      1.95319034
H       2.63903576     -0.91562780     -0.45279167
