16
b3lypvtz=-227771.17012848
N      -3.26637266     -0.23419462      0.03183562
C      -1.85153374     -0.32168560      0.41038675
C      -1.04297609      0.73981355     -0.33102980
C       0.42473442      0.77242573      0.04095081
O       1.04121984     -0.45996399     -0.41992546
C       2.34581783     -0.60422870     -0.16107651
O       3.04472936      0.18342265      0.41416468
H      -3.81939126     -0.87917123      0.58369096
H      -3.38683985     -0.51232353     -0.93605961
H      -1.40620580     -1.30820993      0.23150618
H      -1.78380334     -0.13300151      1.48529091
H      -1.13236471      0.58704930     -1.41080964
H      -1.47250875      1.72118201     -0.11663659
H       0.94086316      1.61009422     -0.42775448
H       0.57318781      0.85024702      1.11923366
H       2.68620179     -1.56844137     -0.56145748
