19
b3lypvtz=-171836.7204725
C      -2.58353389      1.37972990      0.14302770
C      -2.24232971      0.17326378     -0.29237792
C      -1.44624819     -0.83948327      0.47525453
C      -0.14291810     -1.27462481     -0.23371333
C       0.87764133     -0.18195457     -0.35218457
C       2.10610008     -0.22794917      0.15347465
C       3.13088670      0.85885053      0.04075853
H      -3.16760183      2.05908370     -0.46417717
H      -2.29380108      1.72989049      1.12714445
H      -2.55501399     -0.13176662     -1.28880436
H      -1.20997280     -0.45106319      1.46852867
H      -2.06166880     -1.73428100      0.61976811
H      -0.40392168     -1.64381990     -1.23260107
H       0.28878955     -2.12014454      0.30669662
H       0.56504285      0.71065173     -0.88819558
H       2.41432864     -1.12050452      0.69402242
H       2.74500580      1.71667518     -0.51107151
H       4.03024755      0.50324570     -0.47038263
H       3.45068357      1.20569156      1.02761345
