16
b3lypvtz=-204418.87656828
C       1.15698415     -0.05130317     -1.00886615
C       1.91816184     -0.36932080      0.30306127
N       0.82939678      0.28950382      1.08013330
C      -0.03111651      0.25983763     -0.10286832
C      -1.24127619      1.11979515     -0.30361078
C      -1.38088101     -0.37959278     -0.11877299
O      -1.81971807     -0.88689219      1.11488727
H       1.03125108     -0.86861810     -1.71665090
H       1.54263863      0.82465856     -1.52919672
H       2.01064088     -1.44328639      0.48550198
H       2.89413312      0.09913211      0.43275687
H       0.46216759     -0.25333753      1.85416817
H      -1.52412740      1.74386706      0.53519282
H      -1.44012410      1.53916885     -1.28193374
H      -1.66475552     -0.97565268     -0.98274240
H      -2.74337527     -0.64795953      1.23894031
