16
b3lypvtz=-202040.75746056
C      -2.61178750     -0.19104072      0.07815164
N      -1.31468536     -0.74315067     -0.28388103
C      -0.31119215      0.01537090     -0.21677753
N      -0.08193285      1.34665641      0.13339044
C       1.37749045      1.16115869      0.25527819
C       1.19323967     -0.23136126     -0.42031764
N       1.85165922     -1.35737351      0.20050014
H      -2.58600448      0.40053180      1.00376393
H      -3.32410218     -1.00232447      0.22287785
H      -3.00251695      0.45627961     -0.71454605
H      -0.65927681      1.91516785      0.73420733
H       1.97362518      1.90088540     -0.27842040
H       1.73513850      1.06942441      1.28338038
H       1.46298404     -0.20338143     -1.47589352
H       1.45257413     -1.54149050      1.11469054
H       1.69817409     -2.19430953     -0.34934326
