16
b3lypvtz=-227780.5989666
C       2.41858775      1.10292767      0.10335632
C       1.48634134     -0.08838902     -0.01283829
O       1.89332184     -1.23377482      0.09093588
N       0.17689575      0.21314378     -0.23676407
C      -0.86235289     -0.79169698     -0.33648117
C      -2.09951464     -0.36589545      0.43925544
O      -2.59309015      0.90357821      0.00520473
H       1.92466691      2.06349228     -0.04159528
H       2.88232333      1.08624078      1.08959450
H       3.21459112      0.99490482     -0.63268984
H      -0.11181087      1.17462716     -0.30116231
H      -0.45874513     -1.72450731      0.05661343
H      -1.12831054     -0.96929211     -1.38618668
H      -2.87194273     -1.13785389      0.36203373
H      -1.85205728     -0.23796662      1.49317260
H      -3.01078182      0.79328252     -0.85487600
