13
b3lypvtz=-239484.34628655
C      -1.90653281     -0.06727530      0.97945189
C      -1.34377422     -0.53051702     -0.12788864
O      -1.98539870     -1.36061300     -0.98586156
O      -0.07068544     -0.29333285     -0.62622262
C       0.87918323      0.50380320     -0.03171563
C       2.12257194      0.50468315     -0.87825084
O       0.72784132      1.09672738      0.99548742
H      -1.38377741      0.58867871      1.64705476
H      -2.91889757     -0.37438977      1.19071925
H      -1.39157020     -1.56706822     -1.71596584
H       2.87297024      1.13381968     -0.40984584
H       2.50302468     -0.51143234     -0.98605346
H       1.89504493      0.87701638     -1.87750889
