14
b3lypvtz=-224557.44095654
C      -2.84860664      0.10966160      0.15802614
C      -1.41690708      0.33308174     -0.19600797
N      -0.49105377     -0.35108469      0.34839167
N       0.79110188     -0.09841382     -0.01754165
C       1.81045471     -0.81083083      0.54288155
N       3.05623730     -0.67350241      0.28900928
O       3.23007207      0.35623802     -0.68745285
H      -3.42975135     -0.17324325     -0.72400680
H      -3.30023214      1.02301385      0.55496641
H      -2.93431849     -0.67833957      0.90370011
H      -1.18554433      1.10394524     -0.93896843
H       1.01292622      0.61288759     -0.70311109
H       1.52149215     -1.55814116      1.26809072
H       4.18412946      0.37147015     -0.79797709
