16
b3lypvtz=-181140.95368646
C       2.35577720      0.24685524     -0.20008674
C       0.88609043      0.05176585     -0.04116412
C       0.02377477      0.70077292      0.76020122
C      -1.35821152      0.20329806      0.55203779
C      -1.93780186      0.36759414     -0.84451535
C      -1.17391578     -0.87738599     -0.51849763
N       0.23336797     -0.89263655     -0.86026262
H       2.60019521      0.61025901     -1.20099699
H       2.89575474     -0.69521580     -0.06070881
H       2.73145070      0.96193403      0.52960956
H       0.29035669      1.49902947      1.43488961
H      -2.04098539      0.10599844      1.38678139
H      -1.48070351      1.09483780     -1.50244826
H      -3.00940963      0.26109331     -0.94809515
H      -1.67951057     -1.83214957     -0.50239480
H       0.66357056     -1.80595036     -0.90004911
