19
b3lypvtz=-192719.71544525
C       2.98079238     -0.69567949     -0.01298384
C       1.97576507      0.40928670      0.27969917
N       0.65309956      0.06585689     -0.24116921
C      -0.36299100      1.09810345     -0.05305384
C      -1.77619311      0.53873948     -0.01694824
C      -2.10278506     -0.67797333      0.75338584
N      -2.13602151     -0.69853803     -0.72312708
H       3.95686495     -0.45275397      0.40889866
H       3.11261842     -0.83366514     -1.08908820
H       2.64536727     -1.64332622      0.40956091
H       1.88156495      0.54544489      1.36002029
H       2.35071531      1.36349976     -0.12429727
H       0.74058635     -0.14637401     -1.22821681
H      -0.30743698      1.88066407     -0.82399203
H      -0.16933097      1.59666920      0.90068174
H      -2.54006992      1.30601882     -0.09217131
H      -3.06690540     -0.77437482      1.23675711
H      -1.28019318     -1.18826038      1.23907725
H      -1.28563813     -1.15581289     -1.03942616
