14
b3lypvtz=-201293.45032871
C      -2.42486059      0.94350449      0.01151255
C      -1.42288893      0.06261817     -0.10969594
N      -1.57399237     -1.32705281     -0.05657604
N      -0.08368673      0.44450304     -0.30780465
C       0.91445616     -0.04558745      0.64303444
C       2.26369349      0.00476559      0.07487357
N       3.32839000      0.05985681     -0.35612622
H      -3.45579741      0.62297180     -0.01443748
H      -2.22863214      1.99885471      0.12796869
H      -2.52999403     -1.62316630      0.06468880
H      -1.12883748     -1.80978985     -0.82626315
H      -0.00076301      1.43630996     -0.47546030
H       0.67461158     -1.07893276      0.88899159
H       0.91953545      0.51471659      1.58707015
