13
b3lypvtz=-237013.35179828
C      -0.87514591      1.71039991     -0.34071444
C      -0.18044579      0.61335930     -0.07829540
C      -0.75633128     -0.76468987      0.08961642
O      -2.16212649     -0.69102714     -0.08066222
O       1.19613692      0.75143961      0.05230340
N       1.86335303     -0.44096803      0.32744444
N       3.06208276     -0.21074228      0.42233348
H      -0.38022122      2.66440934     -0.44595117
H      -1.94456059      1.64912378     -0.45007238
H      -0.49161657     -1.14823663      1.08171484
H      -0.29794895     -1.43934277     -0.64257263
H      -2.52326889     -1.57435898      0.02817338
H       3.49009299     -1.11936622      0.62294514
