13
b3lypvtz=-213768.51410246
C       0.28938867     -0.26900271      0.39654392
C      -1.02436044      0.24397700     -0.18213732
N      -2.12307751     -0.61094005      0.27097630
C       1.50095831      0.47351668     -0.09383850
O       1.49911060      1.36309821     -0.90593966
C       2.78462366      0.02744331      0.49976245
N       3.77296028     -0.32638971      0.97223097
H       0.29067622     -0.22402028      1.49191967
H       0.42152449     -1.32999008      0.15751283
H      -1.14117170      1.30455454      0.07129439
H      -0.97620963      0.19083622     -1.27004241
H      -2.97205194     -0.39068584     -0.23467402
H      -2.32237104     -0.45239728      1.25224069
