17
b3lypvtz=-171072.08430258
C       1.64209083      0.88957926      0.00000547
C       0.35055110      1.20532657      0.00002263
C      -0.52284732      0.00603634      0.00001037
C       0.43279265     -1.20150305      0.00003057
C       1.86789262     -0.60133002     -0.00002600
C      -1.83323567     -0.00771313     -0.75177284
C      -1.83326449     -0.00771547      0.75173997
H       2.45565508      1.60265434      0.00000500
H      -0.04758907      2.21224738      0.00003835
H       0.27030816     -1.82881432     -0.87697166
H       0.27035481     -1.82873432      0.87709910
H       2.44444514     -0.91852257      0.87362761
H       2.44436285     -0.91849011     -0.87374652
H      -2.13795533      0.89495753     -1.26504589
H      -2.10476394     -0.92361350     -1.26077168
H      -2.13800456      0.89495346      1.26500401
H      -2.10481286     -0.92361737      1.26072549
