11
b3lypvtz=-212999.40133643
C      -0.09507033      0.96222549     -0.03267889
C       0.69906708     -0.18075151      0.64440377
O      -0.35415083     -1.12858341      0.28499294
C      -1.11283356     -0.11975735     -0.30927780
N      -2.23206342     -0.16121231     -0.85026600
C       1.98879192     -0.53106369      0.06327268
N       3.01679644     -0.78063609     -0.38776595
H      -0.43046605      1.75310570      0.63291827
H       0.36524910      1.38892188     -0.91974571
H       0.79046496     -0.10575193      1.72731649
H      -2.63578533     -1.09649676     -0.85316980
