16
b3lypvtz=-225355.11277687
C       2.36380952     -0.42878704      0.96255986
C       2.08962130      0.02443254     -0.46405559
N       0.75496228      0.61945594     -0.60141723
N      -0.24279387     -0.42508119     -0.60340686
C      -1.32997339     -0.05364125     -0.03694063
N      -1.62697508      1.17605887      0.46863192
O      -2.35401592     -0.93004757      0.05952100
H       2.28797026      0.41010186      1.65663489
H       3.36534321     -0.85489788      1.04462115
H       1.64636652     -1.19132062      1.26596985
H       2.21062312     -0.82256148     -1.15142071
H       2.80590135      0.79671650     -0.75533509
H       0.70538174      1.05477670     -1.51848660
H      -0.80138460      1.73651557      0.62748955
H      -2.35108814      1.20878960      1.16655942
H      -2.03638930     -1.74996455     -0.34382194
