12
b3lypvtz=-202865.37217826
C       0.51722450      0.51379367      0.78031383
C      -0.36008623     -0.78867162      0.60607921
C      -0.92985599      0.15599402     -0.51032469
C       0.61765268     -0.02138474     -0.70293702
N       0.55618196     -1.47505630     -0.35642667
C      -0.67884625      1.35778796      0.38129518
O      -1.17020008      2.41650952      0.63411458
H       1.33190578      0.67081166      1.48092012
H      -0.93363822     -1.29838280      1.37575693
H      -1.70146185     -0.09002090     -1.23094053
H       1.22004355      0.39184202     -1.50762708
H       1.41438014     -1.76702249      0.11337612
