15
b3lypvtz=-240233.40466556
C      -1.02177561      0.23325631      0.66204735
C      -1.17076103     -0.48448794     -0.69557741
O       0.15312027     -0.52356467     -1.27981753
C       1.09519132     -0.31261129     -0.24813539
C       0.43244325      0.73169272      0.64835114
O       0.57109182      2.03298685      0.09288015
O       1.32357705     -1.47266042      0.52124959
H      -1.70911529      1.06835953      0.78172220
H      -1.17142642     -0.46164731      1.48652812
H      -1.54988576     -1.50075881     -0.58056952
H      -1.81309971      0.04515536     -1.39857222
H       2.01079719      0.04390369     -0.72389932
H       0.88124045      0.77064599      1.63728862
H       0.31790851      1.99140985     -0.83662399
H       1.65069392     -2.16167987     -0.06687181
