13
b3lypvtz=-234665.62912397
C      -2.47245225     -0.90023350      0.00016016
N      -1.03886053     -0.68640522     -0.00022767
C      -0.49529606      0.55233760     -0.00005803
O      -1.10201662      1.60583391      0.00000626
N       0.91310219      0.57486680      0.00004978
N       1.65826801     -0.53314265      0.00001186
N       2.88540123     -0.31317238      0.00000945
H      -2.95816758      0.07159185     -0.00070156
H      -2.78705177     -1.45317671     -0.88688987
H      -2.78694050     -1.45151034      0.88830108
H      -0.40695632     -1.46944080      0.00004619
H       1.36954028      1.48160831      0.00000878
H       3.33440591     -1.23111286     -0.00000344
