16
b3lypvtz=-204429.93288361
C      -1.56457291     -0.98390462     -0.69685014
C      -0.77188014      0.01888976      0.10034467
C       0.64679157     -0.38348702      0.47194536
N       1.45931599     -0.58527440     -0.71550409
C       2.56475907      0.01440142     -0.79183543
C      -1.10485293      1.44584836      0.05218086
O      -1.47769611      0.64619645      1.18324412
H      -2.55910698     -0.59915513     -0.91824181
H      -1.05114960     -1.21545450     -1.62983788
H      -1.67421072     -1.91247946     -0.13220751
H       1.06579910      0.36518120      1.15660394
H       0.59904653     -1.33835024      1.00563611
H       2.94710017      0.68018939     -0.00765461
H       3.18856350     -0.12432797     -1.67214800
H      -0.33750821      2.18943206      0.24570330
H      -1.93029833      1.78249468     -0.56697889
