16
b3lypvtz=-202063.22304646
C       2.99729066      0.27705264     -0.51857240
C       2.02902408     -0.40265057      0.44663981
N       0.70057964      0.17518314      0.33511866
C      -0.27676293     -0.57406126      0.05817425
C      -1.66806271     -0.04903190     -0.05448568
N      -2.68928351     -0.80706786     -0.21135709
N      -1.77569811      1.30683709      0.01048419
H       3.01860309      1.35311036     -0.34579949
H       4.00569301     -0.11628036     -0.38336407
H       2.69890723      0.10553427     -1.55352667
H       2.36875677     -0.23441449      1.47234723
H       2.01489250     -1.48798220      0.27628651
H      -0.17534834     -1.65612520     -0.09715613
H      -2.40225613     -1.78052353     -0.27295935
H      -2.69350756      1.69399046      0.14147403
H      -0.97666071      1.81568641      0.34805820
