16
b3lypvtz=-202050.21286116
C      -3.57752600      0.27039627      0.03517545
N      -2.33617487     -0.46764137     -0.01744685
C      -1.25300681      0.19268068     -0.00604081
N      -0.02699612     -0.40874513     -0.06663354
C       1.20339466      0.25223843     -0.01748309
C       2.38914644     -0.36001707      0.04766230
N       3.64363696      0.26531934     -0.06930437
H      -4.16150009     -0.03942540      0.90663618
H      -3.44188416      1.36137002      0.08659100
H      -4.18509461      0.04654544     -0.84648173
H      -1.20777837      1.28786069      0.04706452
H      -0.04085081     -1.41604539     -0.11023215
H       1.13357400      1.33251537     -0.06789820
H       2.43921992     -1.44212487      0.10866400
H       4.32440156     -0.07759402      0.59441390
H       3.60013229      1.27382301     -0.01917962
