16
b3lypvtz=-202008.70899550067
C       3.39237777      0.29780160     -0.74165460
C       2.12256428     -0.09606343     -0.62186619
N       1.20184530      0.36599871      0.31495326
C       0.14395468     -0.45651254      0.74363026
N      -1.09887684      0.02028028      0.61001499
C      -2.30107698     -0.37924396      1.01578728
N      -3.40616745      0.36477736      0.54332705
H       4.00648997     -0.08008601     -1.54421211
H       3.83957353      1.01409611     -0.06319518
H       1.69865778     -0.82415942     -1.30364206
H       1.61172167      0.98237380      1.00795599
H       0.29460673     -1.38465924      1.27623405
H      -1.14173382      0.88483019      0.07385444
H      -2.37041849     -1.27605839      1.61612064
H      -3.98419158     -0.13408234     -0.12503156
H      -4.00932653      0.70070727      1.28417681
