16
b3lypvtz=-202039.76674232
C      -2.31318398     -0.71688701      0.06523159
N      -1.14338004     -1.15340757     -0.18536605
C      -0.01528508     -0.38119971      0.08348120
C       1.17995202     -0.97118523     -0.13764797
N       2.42267576     -0.37982568     -0.02797559
N      -0.15190005      0.94442703      0.58725600
C      -0.27550040      2.01320484     -0.40780201
H      -3.16198005     -1.35668378     -0.15698888
H      -2.50681861      0.26042633      0.50985284
H       1.18047993     -2.00129750     -0.46446888
H       2.47535981      0.50316645      0.45318126
H       3.19385004     -0.99161027      0.17877778
H       0.54080725      1.16456226      1.28927099
H       0.58308998      2.09116433     -1.08656901
H      -1.16354354      1.83961020     -1.01555989
H      -0.40479903      2.96794730      0.10346863
