16
b3lypvtz=-204426.27451592
C       2.21331338     -0.76339593     -0.06258192
C       1.39152999      0.16701207      0.40393811
C      -0.02970220      0.42883327     -0.00653790
N      -0.16990144      1.85681414     -0.25354578
C      -0.68834626     -0.58565224     -0.98461675
O      -1.49064192     -1.15202296      0.07211867
C      -1.07928171     -0.12605791      0.99772061
H       3.21997202     -0.85683119      0.32264099
H       1.92522444     -1.46834976     -0.83101008
H       1.74110325      0.84718616      1.17542374
H      -1.10411845      2.08281588     -0.57460518
H       0.48429471      2.16896587     -0.96193296
H      -1.30412079     -0.09880061     -1.74860523
H      -0.05491379     -1.33512405     -1.46083467
H      -0.69610063     -0.54106067      1.93134086
H      -1.88508461      0.58336793      1.21271850
