12
b3lypvtz=-202903.15106611
C      -0.14488702     -1.10444920      0.08003887
C       0.63723657      0.19490245      0.52220361
C      -0.54565393      1.01945061     -0.04777156
C      -1.26767253     -0.19941526     -0.42894629
O      -1.69911597      0.60992705      0.67599479
C       1.90179851      0.39217531     -0.15955058
N       2.89401510      0.55829551     -0.71922492
H       0.37383619     -1.63771236     -0.71325289
H      -0.41657702     -1.78956503      0.88057078
H       0.76973468      0.32086483      1.59641399
H      -0.52068064      2.01445682     -0.46766998
H      -1.98203393     -0.37893072     -1.21880582
