15
b3lypvtz=-214527.74008651
C       0.76195190     -1.51803705      0.77961645
C       0.77101576     -0.40714625     -0.27671827
N       2.08458493      0.24057018     -0.30486820
C      -0.29172094      0.63490275      0.04624762
N      -0.08211926      1.78874098      0.53220405
C      -1.72849197      0.29728531     -0.23057417
O      -2.09620974     -0.73978285     -0.72620333
H      -0.21931378     -1.98368559      0.84422826
H       1.02914315     -1.11304274      1.75682416
H       1.48432102     -2.29306127      0.51605054
H       0.49315591     -0.85915132     -1.23606172
H       2.82269894     -0.44455277     -0.20785349
H       2.23667019      0.72369846     -1.18232843
H       0.92717678      1.91318996      0.66764196
H      -2.42958189      1.10150920      0.05791957
