14
b3lypvtz=-226990.03841621
N      -1.29778329      1.41420677     -0.90012816
C      -0.83659261      0.38101415      0.01923046
C      -1.25848115     -1.04095484     -0.33085995
O      -1.80592761     -1.35932222     -1.35559613
C       0.65237272      0.47038702      0.23605814
C       1.53077421     -0.32894662     -0.36197983
O       2.87421417     -0.19419164     -0.17285950
H      -2.28182547      1.27777014     -1.10778504
H      -0.80668632      1.32183140     -1.78218505
H      -1.31256364      0.56696432      0.99391413
H      -1.04127827     -1.79255308      0.45725835
H       1.01354454      1.26374710      0.87798090
H       1.22667626     -1.12540810     -1.03416076
H       3.34365646     -0.85454440     -0.68888756
