11
b3lypvtz=-238732.3855821
O       1.15875027      0.15378946     -0.25286475
C       2.32664683      0.16504833      0.03663118
O       3.06376687     -0.92507159      0.35281636
C       4.41717473     -0.51116940      0.63949309
C       4.43124370      0.97597093      0.46244161
C       3.20336344      1.35501584      0.11019912
O       2.69655249      2.56501577     -0.16361674
H       4.65600364     -0.82945661      1.65688137
H       5.08104705     -1.03649263     -0.05098734
H       5.30505110      1.59082645      0.60555035
H       1.75989987      2.43432346     -0.38154426
