14
b3lypvtz=-224574.2675164
C       2.83681308     -0.36732380     -0.09100878
N       1.58463656     -0.25555118      0.15782818
N       0.96885088      0.92473251      0.05001319
C      -0.44709559      1.01069926      0.04240226
C      -1.28607973     -0.04054962     -0.02437823
N      -2.67196637      0.06299271     -0.11825161
O      -0.89016311     -1.33346181     -0.04324379
H       3.29530197     -1.33520045      0.04256342
H       3.44998968      0.47309711     -0.41800865
H       1.47932128      1.67359560     -0.40537501
H      -0.82535944      2.01555522      0.13793592
H      -3.14824302     -0.62928823      0.44430138
H      -3.02756043      0.98946787      0.05825786
H       0.07772324     -1.33268318      0.11261486
