15
b3lypvtz=-214506.68694913
C       2.19040343     -0.79554426     -0.55921470
C       1.19022808     -0.70748887      0.60288429
C      -0.15427081     -0.16021117      0.21653137
C      -1.26726387     -0.92332131      0.09385225
O      -2.47400454     -0.46275420     -0.25453725
N      -0.38553921      1.19209509     -0.04093666
N       0.59479036      1.96274085      0.08248492
H       3.14587560     -1.19241815     -0.21185776
H       1.81866701     -1.45332478     -1.34680794
H       2.37080036      0.18744653     -0.99076039
H       1.60981592     -0.07166282      1.38592177
H       1.04798832     -1.69893157      1.03910459
H      -1.25993168     -1.99000053      0.27614358
H      -2.36621898      0.49662309     -0.39036820
H       0.25209801      2.90781609     -0.12709488
