15
b3lypvtz=-212077.75205518
C      -1.87790320      1.16452811      0.02513483
N      -0.86859176      0.12893226      0.17089023
N      -1.17437236     -1.10688695      0.54358945
N      -2.40006154     -1.29581306      0.75550358
N       0.43080431      0.48142972     -0.09462898
C       1.36978037     -0.37413405      0.01127781
C       2.77463828      0.03519298     -0.28329263
H      -2.62088491      0.86713197     -0.71616009
H      -1.36448993      2.06718899     -0.28564951
H      -2.39842663      1.32140882      0.97087782
H      -2.47482383     -2.27692935      1.02937618
H       1.17989317     -1.40173769      0.31178462
H       3.19242411     -0.57192176     -1.09143083
H       3.41411136     -0.12268945      0.58984291
H       2.81770255      1.08439945     -0.56931539
