10
b3lypvtz=-220644.95863128
C      -1.22617922      1.04781904      0.01761609
N      -1.82709914     -0.13525752      0.34345657
C      -0.84248215     -0.99804906      0.25004174
N       0.29144151     -0.35452165     -0.11493241
N       0.05733144      0.96506424     -0.26806596
N       1.54991862     -0.97135390     -0.31094200
N       2.46936226     -0.23296629     -0.64128891
H      -1.75325780      1.98728229     -0.00737337
H      -0.87550661     -2.05993861      0.42463095
H       2.15647109      0.75192148     -0.72345315
