13
b3lypvtz=-211300.11837565
C      -2.56907283     -0.00606934     -0.00018179
C      -1.44057195     -0.70333372      0.00006948
N      -0.12285453     -0.18272413     -0.00002320
N       0.84043472     -1.15739815      0.00004752
C       2.09782403     -0.93279943     -0.00025560
N      -0.02335692      1.16118746      0.00003486
N       1.12876903      1.64798301     -0.00011464
H      -2.58960934      1.07203642     -0.00047247
H      -3.50738973     -0.53975763     -0.00006026
H      -1.41964944     -1.78153652      0.00033479
H       2.70721986     -1.83096094      0.00003659
H       2.56756217      0.03612766     -0.00041234
H       0.98305192      2.66032130      0.00002106
