14
b3lypvtz=-227021.06279208
C       2.29650342     -0.53665569     -0.23555294
C       1.02937279     -0.03050813      0.40444482
N       0.59259415      1.26334620     -0.07834932
C      -0.86460967      1.21945877      0.05292578
C      -1.21966534     -0.26532904     -0.01198834
O      -2.29294260     -0.77210485     -0.16086542
O      -0.06771644     -0.96745502      0.13582033
H       3.11472352      0.15252818     -0.02607998
H       2.16983922     -0.62323984     -1.31608004
H       2.55618342     -1.51721308      0.15944319
H       1.12681585      0.00434126      1.49333600
H       0.84041536      1.35195051     -1.05777979
H      -1.18947325      1.61595868      1.01956568
H      -1.37541843      1.77901208     -0.72636200
