19
b3lypvtz=-171827.6127498
C       3.16897227      0.03569286     -0.31666696
C       1.99766141      0.36204166      0.21568832
C       0.85754199     -0.58359779      0.45300591
C      -0.41291193     -0.19762861     -0.30205542
C      -1.71291974     -1.00376879     -0.03839307
C      -2.51079554      0.32139626     -0.13144053
C      -1.18535594      1.08924774      0.10244444
H       3.94909386      0.77018614     -0.46905798
H       3.39208083     -0.98215275     -0.61630193
H       1.82271946      1.39654279      0.50032136
H       0.62467204     -0.60856739      1.52471510
H       1.15681022     -1.59780693      0.17248248
H      -0.20221611     -0.17613415     -1.37418845
H      -1.96423993     -1.80257950     -0.73590707
H      -1.72634987     -1.41023355      0.97502605
H      -2.90242322      0.48790751     -1.13520549
H      -3.31718111      0.47676774      0.58422776
H      -1.01086360      1.99379266     -0.47936697
H      -1.03925507      1.32213811      1.15958747
