14
b3lypvtz=-226976.55098486
C       1.80887941     -0.46257229     -0.90684804
C       0.84457808     -0.36912448      0.18919050
O       1.94231868      0.54423719      0.10398688
C      -0.54217983      0.22086679     -0.01536276
C      -0.89967825      1.10659894      1.16544357
O      -1.96412451      1.06863982      1.72820380
N      -1.52553488     -0.82826786     -0.18946590
H       1.53353275     -0.09489587     -1.89092052
H       2.56999960     -1.23500341     -0.89091408
H       0.90765470     -1.09312871      0.99671058
H      -0.46832704      0.92065258     -0.86486005
H      -0.10752647      1.81285423      1.47234054
H      -2.39269249     -0.56536474      0.26512096
H      -1.70689974     -1.02549216     -1.16262549
