15
b3lypvtz=-214525.78883952
N      -1.81455542      1.31591584      0.10381377
C      -1.74421882     -0.03679789     -0.39028353
C      -1.39226663     -1.11334070      0.60513545
C      -0.37666174     -0.67045435     -0.42118043
N       0.73725833      0.13763779     -0.03879869
C       2.03535014     -0.24345151     -0.11446967
O       2.98146000      0.43269947      0.23293030
H      -1.84896993      1.98393592     -0.65660521
H      -2.63707636      1.45736721      0.67670302
H      -2.42161143     -0.32304659     -1.19025381
H      -1.21710943     -0.79274579      1.62300507
H      -1.85350156     -2.08530799      0.49805567
H      -0.16063445     -1.34601181     -1.23769377
H       0.52652959      1.04082914      0.36503041
H       2.15371771     -1.25496674     -0.54550158
