17
b3lypvtz=-194365.07873832
C       0.70705433      1.37868913      0.92089314
C       0.57867748      0.21218905      0.29054403
C       1.63358024     -0.85925400      0.44023674
O       2.26576534     -1.17828867     -0.80264702
C      -0.55903893     -0.15663198     -0.59555143
C      -1.80275832      0.67100651     -0.74121939
C      -1.86935359     -0.63206600      0.00562766
H       1.54836507      1.56908254      1.57553499
H      -0.01589907      2.17671773      0.81815496
H       1.17899814     -1.79448762      0.77327039
H       2.37282588     -0.55741972      1.18901347
H       2.68437924     -0.37637334     -1.13268493
H      -0.24700551     -0.70068201     -1.47823677
H      -1.88971808      1.58238666     -0.16719305
H      -2.25602864      0.72296085     -1.72140748
H      -2.36774836     -1.47300935     -0.45641603
H      -1.96219522     -0.58481977      1.08198072
