14
b3lypvtz=-226996.28724968
N      -1.56697039      1.41707553     -0.14469933
C      -0.61989058      0.43127772      0.04516104
C      -1.17863922     -0.93811404     -0.05740814
O      -2.37031342     -1.14740376     -0.13977759
C       0.69271940      0.66437976      0.26064001
C       1.77858713     -0.33513407      0.47253227
O       2.73549949     -0.19006973     -0.58390279
H      -2.51830977      1.09693104     -0.04400419
H      -1.37838620      2.32445722      0.24447711
H      -0.45906949     -1.76849142     -0.07184172
H       1.02920822      1.69691613      0.28642035
H       1.40047766     -1.35902552      0.51441342
H       2.25907268     -0.13216314      1.43860480
H       3.54796748     -0.63352872     -0.32113123
