14
b3lypvtz=-224598.17387661
N      -2.34497555     -0.51555155      0.61104413
C      -1.22396068     -0.88187902      0.16727492
C      -0.24806833     -0.02804946     -0.62973569
O      -0.76214690      1.29683550     -0.68110528
C       1.14945702     -0.11036518     -0.00265266
N       2.02696352     -0.98689037     -0.30334596
N       1.35625757      0.79895109      0.99104966
H      -2.51855076      0.46116581      0.36116415
H      -0.88258598     -1.90165258      0.34998068
H      -0.17514345     -0.45604028     -1.63579550
H      -0.34283850      1.76731580     -1.40743213
H       1.69845262     -1.59899130     -1.04482616
H       0.75039365      1.59779198      1.04759811
H       2.28306677      0.86643657      1.37457074
