14
b3lypvtz=-201297.33355186
N       1.22873713      1.65107897      0.06831540
C       0.27022215      0.82047634      0.11472954
N      -1.09225203      1.00641822     -0.09622576
C      -1.74594278     -0.23779321     -0.13813563
C      -0.91742937     -1.24140033      0.14972541
C       0.45862412     -0.68301453      0.41327563
N       1.52657661     -1.34441096     -0.32896501
H       0.91975549      2.59491660     -0.16028823
H      -1.46466041      1.83506538     -0.52871788
H      -2.80362352     -0.27044037     -0.34847760
H      -1.17612951     -2.28329131      0.23050409
H       0.70259361     -0.77309904      1.47802392
H       2.38710856     -0.82392117     -0.18891206
H       1.32522296     -1.29746358     -1.32245083
