14
b3lypvtz=-226983.79353605
C      -1.78713295     -0.11694056      0.09069189
C      -0.90782900      0.79766105     -0.76803835
O      -1.07947099      1.81173335     -1.37394420
C       0.29958423     -0.10990429     -0.49388884
N      -0.56500311     -0.90047624      0.43848926
C       1.50031659      0.51510730      0.20689477
O       2.32380426     -0.48830527      0.77567839
H      -2.27631556      0.35880772      0.94257872
H      -2.54025460     -0.65090124     -0.49647275
H       0.62792368     -0.66262747     -1.37957510
H      -0.63712569     -1.87573005      0.18260680
H       1.15435145      1.21992814      0.97166193
H       2.11005859      1.06499649     -0.50974088
H       1.77709310     -0.96334893      1.41305836
