16
b3lypvtz=-202036.82111873
C       2.84849924      0.76153429      0.33911955
N       1.92650367     -0.23673818     -0.17272928
N       0.64575272      0.19132692     -0.31655503
C      -0.30589369     -0.66280224     -0.30428372
C      -1.69105101     -0.24876108     -0.52146375
C      -2.68294297     -1.15203103     -0.40382744
N      -1.87313549      1.07764637     -0.87934341
H       3.85792244      0.35258045      0.30296140
H       2.80830778      1.64022948     -0.30237498
H       2.62848100      1.07254097      1.36765174
H       2.01771370     -1.14974381      0.26563986
H      -0.12885892     -1.72690963     -0.13041655
H      -3.72004210     -0.88590069     -0.55341726
H      -2.45921107     -2.18065940     -0.16664711
H      -2.77517566      1.47068117     -0.66952522
H      -1.09686966      1.67700639     -0.64627277
