15
b3lypvtz=-193611.85438666
C       0.02641919     -1.43547163      0.29119355
C      -1.21131638     -0.96586872      0.18832110
C      -1.61270295      0.40895954     -0.26863991
O      -0.94710728      1.51502323      0.34912126
C       0.38215541      1.68383278      0.11854472
C       1.33994793      0.77724549     -0.06656677
C       1.31698612     -0.72147948      0.02003269
H       0.14611913     -2.47164251      0.59221150
H      -2.03394962     -1.63816573      0.40708317
H      -2.66691685      0.57517219     -0.05346336
H      -1.47767862      0.49489438     -1.35369285
H       0.63317610      2.73838004      0.11394009
H       2.32266090      1.19862769     -0.24578600
H       2.02946647     -1.01127609      0.80284792
H       1.75294044     -1.14833117     -0.89504711
