13
b3lypvtz=-216129.43842776
C      -1.88311829     -1.09896764     -0.03988480
C      -1.47661357      0.16911014      0.02541691
O      -2.34012450      1.20773716      0.06393575
O      -0.20022455      0.63377323      0.06368374
C       0.84998712     -0.33673116      0.02849932
C       2.13230515      0.34652126      0.08466975
C       3.20495244      0.87769226      0.12984352
H      -2.94014507     -1.30635797     -0.06272768
H      -1.19277017     -1.92294049     -0.07055596
H      -1.82529881      2.02244704      0.10848606
H       0.77234380     -0.92567760     -0.89059564
H       0.74522181     -1.01927133      0.87743976
H       4.15348463      1.35266510      0.17013273
