14
b3lypvtz=-227019.54185344
N      -2.36391418     -0.41513177      0.23864471
C      -1.07856451     -0.11942211     -0.38753320
C      -0.52504610      1.23641008      0.07711795
O       0.90774503      1.12008753      0.00782612
C       1.28411620     -0.19107834      0.02856749
O       2.43018247     -0.52831637      0.02671852
C       0.03744148     -1.06062544      0.05729551
H      -2.68284387     -1.33932112     -0.02881634
H      -3.07546412      0.23350691     -0.08082624
H      -1.11989524     -0.11715165     -1.48512873
H      -0.81942480      2.07480643     -0.55150793
H      -0.82389187      1.43072238      1.10952619
H       0.17657811     -1.94536316     -0.55955881
H      -0.13273661     -1.38263437      1.08857077
