13
b3lypvtz=-242075.7410113
C       0.48230213     -1.00735561      0.52998686
C      -0.25966506     -0.16713766     -0.54267821
O       0.69609186      0.88126082     -0.86632363
C       1.78047378      0.64354870     -0.08185579
N       1.78574203     -0.34634437      0.69925580
C      -1.56295607      0.45554250     -0.09798205
F      -1.41800146      1.07586350      1.13793958
H       0.62929765     -2.04122363      0.21722861
H      -0.04744513     -1.01453665      1.48307247
H      -0.44769772     -0.72902721     -1.46052140
H       2.58542745      1.35601041     -0.20264962
H      -2.33084384     -0.31666812     -0.00174192
H      -1.89272560      1.21006732     -0.81373070
