15
b3lypvtz=-214497.07252507
C       2.24867416      1.18527416      0.07478561
C       1.42729350     -0.03915107     -0.32439711
O       2.13500608     -1.25381127     -0.04604464
C       0.08274164     -0.05324897      0.34008388
C      -1.08436523      0.00464672     -0.29971751
N      -2.27927608     -0.01360525      0.44320601
N      -3.30068041      0.06195971     -0.26893699
H       1.74949382      2.10861626     -0.22210298
H       2.39466458      1.21711106      1.15801589
H       3.22724592      1.14485452     -0.40394624
H       1.29247740     -0.04608798     -1.40701962
H       2.37344231     -1.26356767      0.88763217
H       0.06510953     -0.11779647      1.42470562
H      -1.17425065      0.06575216     -1.38171470
H      -4.10660055      0.03725410      0.37012661
