15
b3lypvtz=-212100.61103305
N       3.04086738     -0.51771231      0.30055977
C       2.30410068      0.68065415     -0.06163068
C       0.81782897      0.55268448     -0.25880718
N       0.21199953     -0.55585523     -0.13148071
C      -1.17991045     -0.59879802     -0.23662959
N      -1.93480836      0.30737863      0.24476911
N      -3.29450517      0.18097816      0.07271532
H       2.65510154     -0.90189816      1.15636999
H       2.88127034     -1.23282324     -0.40069611
H       2.47146431      1.45114875      0.70069548
H       2.73058689      1.10299507     -0.97945405
H       0.27660856      1.46993245     -0.51836059
H      -1.57254627     -1.50463994     -0.70513445
H      -3.77705294      0.61713746      0.84420329
H      -3.61794501     -0.77340225     -0.06730059
