16
b3lypvtz=-181129.65598079
C      -3.62272669     -0.72434071     -0.07245799
C      -2.32789500     -0.05705668     -0.04123692
C      -1.25989021      0.49379633     -0.02119407
C       0.04818630      1.15328367      0.01876337
C       1.17175832      0.23647322      0.43360602
C       2.24680321      0.00516154     -0.31986861
N       3.36932787     -0.74100273      0.03769780
H      -3.51490894     -1.80156930      0.07119184
H      -4.28161120     -0.34889371      0.71332959
H      -4.12471244     -0.56685534     -1.02943771
H       0.26996276      1.57867895     -0.96463054
H      -0.01704258      2.00659952      0.70491325
H       1.07518447     -0.24015913      1.40406695
H       2.33310477      0.47368904     -1.29519022
H       3.81796116     -1.22019737     -0.72734658
H       3.23660620     -1.35447731      0.82810882
