16
b3lypvtz=-227784.84755715
C       1.79836603     -0.80743737      0.83705704
C       1.33250979     -0.55473366     -0.59832512
C       0.12797475      0.39164328     -0.73324084
N       0.39542686      1.72209841     -0.15708200
C      -1.10110847     -0.23558020     -0.04793704
O      -1.63103401     -1.23440166     -0.45512170
O      -1.51068459      0.41592127      1.04890631
H       2.65564708     -1.48110757      0.84095767
H       1.01211508     -1.27078022      1.43450974
H       2.10244046      0.11039285      1.34337585
H       1.05082364     -1.49943471     -1.06350225
H       2.15327451     -0.14195114     -1.19223710
H      -0.12467480      0.45528302     -1.79427745
H       1.38685510      1.90422250     -0.07310167
H      -0.00355398      2.45951378     -0.72323108
H      -0.90579946      1.18691140      1.12583463
