13
b3lypvtz=-213740.48184237
C      -0.05814814     -1.04817602     -0.03304327
C      -1.51549874     -0.84772847     -0.36820772
N      -1.92981757      0.34965485     -0.44138631
C      -0.81784165      1.26793006     -0.16506128
C       0.38778105      0.38541765      0.09727987
N       1.53413617      0.84621457      0.37122096
O       2.46866611     -0.19577411      0.56807897
H       0.09460142     -1.61598246      0.88959822
H       0.49078485     -1.58459921     -0.81269732
H      -2.19559751     -1.67708704     -0.54247969
H      -1.06682818      1.89992582      0.69039380
H      -0.67049322      1.93394221     -1.01817326
H       3.27825543      0.28626216      0.76447703
