13
b3lypvtz=-213795.59033305
N      -2.11821261     -0.45571318     -0.09309204
C      -0.76379902     -0.26111390     -0.05814161
C       0.29277373     -1.05415534     -0.29706090
C       1.56749049     -0.30400813     -0.02076534
N       1.08192989      0.99333160      0.40979699
C      -0.27719929      1.08872477      0.37360067
O      -0.97031670      2.05922602      0.62146273
H      -2.65041339      0.40208453     -0.07625880
H      -2.48305856     -1.17398125     -0.69414855
H       0.28532818     -2.08321446     -0.62111185
H       2.16899704     -0.78318452      0.76004861
H       2.19993078     -0.21405588     -0.91141814
H       1.66644945      1.78605975      0.60718824
