18
b3lypvtz=-205211.67340557
C       2.46547341     -0.59937806     -0.02670998
C       1.43444414     -0.01280132     -0.61789812
C       0.08780952      0.22437842      0.01453690
C      -0.24981668      1.72573570     -0.03231957
O       0.11408418     -0.21509761      1.36586927
C      -0.98119305     -0.60848811     -0.73746321
N      -2.24643503     -0.58499659      0.00769757
H       3.40586964     -0.73332087     -0.54501317
H       2.39398159     -0.95505681      0.99161015
H       1.52757150      0.34523352     -1.63921363
H      -0.23808003      2.11043275     -1.05447428
H      -1.23552492      1.91028087      0.39861042
H       0.48118862      2.27917999      0.55544477
H      -0.81169786     -0.41194505      1.57831982
H      -0.63021507     -1.63979869     -0.76829571
H      -1.07127778     -0.25494376     -1.77076482
H      -2.81541015      0.21419512     -0.23936687
H      -2.79526102     -1.41349250     -0.17620253
