11
b3lypvtz=-236297.27943995
N      -2.05509689      0.00882131      0.66034723
N      -0.98499404      0.21911941      1.37399979
C       0.19810753      0.18312952      0.81285448
C       0.44089466     -0.07889659     -0.58142151
O      -0.43091507     -0.30204920     -1.42738203
C       1.89140105     -0.08402363     -1.06448116
O       2.84426284      0.11574148     -0.35945036
H      -2.92796292      0.05101322      1.15538099
H      -1.98819104     -0.18480913     -0.33601350
H       1.03836250      0.36640747      1.46451233
H       1.97413137     -0.29435386     -2.14854625
