17
b3lypvtz=-194359.44360912
C       2.04605472      0.04853920     -0.53966717
C       0.73835138      0.15328680      0.22659307
C      -0.42105317      0.88611826     -0.53809296
O      -0.90702993      2.12886383     -0.07235330
C      -1.29315405     -0.35740522     -0.42008725
C      -1.40027817     -0.82822533      1.00549978
C      -0.13904797     -1.10649051      0.25503346
H       1.88764489     -0.37469947     -1.53445441
H       2.76225220     -0.59036366     -0.01852361
H       2.50285774      1.03252437     -0.66286551
H       0.92066528      0.57129474      1.22116656
H      -0.12646972      1.06205298     -1.57261816
H      -1.33323407      1.99054446      0.77960000
H      -1.98486159     -0.70921506     -1.17288619
H      -2.06703984     -1.66721322      1.15345403
H      -1.39172459     -0.12896996      1.83667855
H       0.20626688     -2.11064220      0.05362313
