18
b3lypvtz=-181882.05482491
C       1.76064155      0.68585810      0.88274339
C       0.99955460     -0.41287181      0.18259154
C      -0.46610003     -0.52680323      0.03784366
N       0.43309820     -0.31146236     -1.18482222
C      -0.16014082      1.06515596     -1.31935062
C      -1.12392686      0.84365684     -0.13509685
C      -1.22939364     -1.79427467      0.27459668
H       1.22096438      1.63012323      0.92689433
H       2.71651825      0.86686331      0.38554143
H       1.97593940      0.38399264      1.90968933
H       1.48922945     -1.37726227      0.27793898
H      -0.66082464      1.14575207     -2.28177607
H       0.56404316      1.87668147     -1.23519500
H      -2.16315987      0.76607725     -0.45055620
H      -1.07091354      1.52819845      0.71334354
H      -2.09715477     -1.86037543     -0.38559953
H      -1.58838252     -1.84311313      1.30661335
H      -0.59999230     -2.66619643      0.09460023
