15
b3lypvtz=-214537.73308075
C      -1.14752340      1.64860383     -0.14810615
C      -0.48596517      0.50344613      0.07364098
N      -1.04400394     -0.76419036      0.11789224
C      -2.47357092     -0.93239589     -0.05944984
N       0.91347756      0.49707463      0.26809560
C       1.80308205     -0.43967549     -0.19234457
O       3.00317576     -0.33812689     -0.06869586
H      -2.22311714      1.68186870     -0.19324242
H      -0.60702924      2.56964118     -0.30165297
H      -0.63925249     -1.35705421      0.82718518
H      -3.06884018     -0.41676888      0.70370029
H      -2.76941051     -0.54969751     -1.03644567
H      -2.70744347     -1.99488307     -0.02412468
H       1.33128750      1.34737035      0.61595270
H       1.31380358     -1.29432153     -0.68133084
