18
b3lypvtz=-181919.3313224
C      -1.73956637      0.06914220     -1.01472348
C      -0.58998700     -0.01275676     -0.00840930
C      -1.14376279     -0.12050203      1.41972120
C       0.37793757     -1.19334100     -0.28926526
C       1.72700340     -0.56156093     -0.06564497
N       1.75138299      0.70220120      0.03394947
C       0.37779731      1.20485709     -0.10840167
H      -1.36549397      0.14030554     -2.03802173
H      -2.36432707      0.94524257     -0.82623747
H      -2.38342283     -0.81118034     -0.95340677
H      -0.33629914     -0.16726772      2.15321534
H      -1.75723400     -1.01668782      1.53653318
H      -1.76497836      0.74419867      1.66246513
H       0.30402517     -1.55495105     -1.32082566
H       0.20354317     -2.05693898      0.35698524
H       2.64811159     -1.13733663     -0.01248617
H       0.18297645      1.95945491      0.65666247
H       0.30251087      1.71049207     -1.07624354
