10
b3lypvtz=-248785.22521137
C       1.64492664     -0.65251603     -0.08744455
O       2.70634733     -0.73576888      0.46432319
C       0.48828544      0.13106195      0.57063406
O       0.61732087      0.68659330      1.63577527
C      -0.83692333      0.19821675     -0.14482636
N      -0.97989457     -0.38390656     -1.26020579
O      -1.77419715      0.90247686      0.50775678
H       1.42593624     -1.11053235     -1.06178814
H      -1.92218023     -0.25970870     -1.63144495
H      -1.36962125      1.22408365      1.33327436
