16
b3lypvtz=-209437.09389597
C      -1.57509406     -1.08856140      0.34768321
C      -0.45738831     -0.23328889     -0.25003041
C       0.89101781     -0.53551235      0.44248951
C       2.04395692      0.12359822     -0.16148953
C       2.98649125      0.66438034     -0.67014411
C      -0.78020217      1.24958740     -0.15369764
F      -1.94823347      1.53302753     -0.86667215
H      -1.37433393     -2.15179074      0.20773064
H      -2.52912306     -0.85850738     -0.12409931
H      -1.67730026     -0.90446274      1.42051948
H      -0.35182622     -0.47387704     -1.31135489
H       1.05395399     -1.61629548      0.42614546
H       0.82752611     -0.25608853      1.49965160
H       3.82451095      1.13928899     -1.11563850
H      -0.95187277      1.54831515      0.88502212
H       0.01791722      1.86018694     -0.57611549
