14
b3lypvtz=-227008.3850111
O      -3.13661764      0.57004129      0.12410375
C      -2.62440740     -0.30100938     -0.54873227
N      -1.30414529     -0.60807389     -0.57607149
C      -0.28660730      0.10895969      0.19195567
C       0.78190117      0.68141657     -0.69010693
C       2.07381650      0.37496142     -0.62032985
O       2.57509987     -0.51717556      0.28912391
H      -3.21087352     -0.94958792     -1.22452061
H      -1.00330875     -1.33622146     -1.20271248
H      -0.82156060      0.89744915      0.72142394
H       0.15178099     -0.55529921      0.93706260
H       0.48072426      1.39875845     -1.44220551
H       2.79892810      0.82998525     -1.28552692
H       3.52536961     -0.59420441      0.17663619
