16
b3lypvtz=-204413.92509183
C      -0.24264333      2.41244692     -0.12208035
C      -0.12655075      1.23026389      0.04470586
C      -0.00834499     -0.22163080      0.22656603
C       1.28229122     -0.78377624     -0.39110326
N       2.45735038     -0.28695989      0.31766301
O      -1.08324236     -0.92981665     -0.37520948
C      -2.34974866     -0.68387604      0.20852730
H      -0.33526570      3.45978843     -0.26662351
H       0.00652144     -0.43013473      1.30747060
H       1.17827907     -1.87469189     -0.39262408
H       1.32928189     -0.45936588     -1.43033023
H       2.64708450     -0.83820700      1.14505860
H       3.27994494     -0.33330733     -0.26749183
H      -2.35169745     -0.93910916      1.27552025
H      -3.06309556     -1.32137779     -0.31012631
H      -2.65202764      0.36137218      0.09579738
