18
b3lypvtz=-205221.72451974
C      -1.88561764     -0.76889911     -0.96480096
C      -1.18842569      0.25888567     -0.05512454
C      -2.14036032      0.73447699      1.05155092
C       0.09287798     -0.27481768      0.53142785
C       1.32158471     -0.09144653      0.02685897
N       1.65232804      0.54965524     -1.15786573
O       2.46425273     -0.57882967      0.60472716
H      -1.22878775     -1.08234758     -1.77704920
H      -2.15618025     -1.66129166     -0.39549538
H      -2.80055217     -0.35893708     -1.40068006
H      -0.95567344      1.13585200     -0.67227906
H      -3.06564755      1.13604362      0.63315231
H      -2.40838112     -0.09624267      1.70963588
H      -1.67704573      1.50852531      1.66479086
H       0.00474600     -0.89697612      1.41646566
H       2.55009870      1.00993496     -1.12447913
H       0.92836916      1.14159851     -1.53124093
H       2.22836632     -0.99169521      1.44119638
