17
b3lypvtz=-194358.84013953
C       2.12123101      0.00000040     -0.19577802
C       1.06528774      1.08662304      0.14169666
C      -0.03227276      0.00000013      0.12691244
C       1.06528777     -1.08662272      0.14169511
C      -1.27461933     -0.00000067      1.03135126
C      -2.07696928      0.00000023     -0.27755527
O      -0.86397691      0.00000096     -1.06587235
H       3.03040760     -0.00000008      0.40329617
H       2.39824787      0.00000116     -1.24864673
H       0.92261565      1.89055169     -0.57927346
H       1.20125049      1.51648960      1.13567063
H       0.92261566     -1.89055028     -0.57927622
H       1.20125051     -1.51649082      1.13566841
H      -1.38794015     -0.88805812      1.65141868
H      -1.38794026      0.88805589      1.65141993
H      -2.68120319     -0.89012837     -0.46717726
H      -2.68120340      0.89012896     -0.46717598
