18
b3lypvtz=-181921.24230837
C       2.60115829      0.05393144      0.28803622
C       1.26805477      0.62332719      0.76881684
C       0.08145415     -0.31362957      0.54763934
C      -1.26324532      0.20862116      1.11435463
C      -2.29545441     -0.21850180      0.05464609
C      -1.39743387     -0.50197030     -1.12617025
N      -0.15390692     -0.55893874     -0.89230109
H       3.41168149      0.76805347      0.44230729
H       2.85671795     -0.85956183      0.83018153
H       2.55596963     -0.19016129     -0.77267522
H       1.05965207      1.56776264      0.25647823
H       1.32553421      0.85531419      1.83672171
H       0.32881493     -1.28730740      0.98801341
H      -1.47997982     -0.18353796      2.10674379
H      -1.23163150      1.29751068      1.19031109
H      -3.04851163      0.54037452     -0.16383307
H      -2.83784701     -1.12715817      0.33575572
H      -1.78102702     -0.67412824     -2.12922010
