14
b3lypvtz=-203701.05715455
C       3.17198218     -0.33360474      0.03324641
C       1.96850754      0.25112599     -0.02528135
C       0.71510271     -0.45720496     -0.01161316
C      -0.52268503      0.10298866     -0.01515152
N      -0.83620133      1.43989133     -0.04979148
C      -1.68625931     -0.80233781     -0.01628769
O      -2.83313761     -0.41029653      0.03047692
H       4.08391388      0.24599963      0.00768480
H       3.27515565     -1.40933974      0.10732306
H       1.93038917      1.33328715     -0.10569465
H       0.75475517     -1.54000129      0.00013535
H      -0.18717559      2.09765578      0.34479632
H      -1.80900155      1.63216311      0.13931044
H      -1.44281089     -1.87832958     -0.06191045
