15
b3lypvtz=-214544.68212694
C      -1.71169877     -1.15800260     -0.58778074
C      -1.29396100      0.04087172      0.23026975
O      -1.94744231      1.05605119      0.27902286
C       0.02475328     -0.07387445      0.99657073
C       1.19685421      0.16173188      0.04657462
N       1.46533838      1.26937083     -0.51851676
N       1.93587727     -0.96544565     -0.25462814
H      -2.01501879     -1.96579153      0.08419176
H      -0.87590227     -1.53266964     -1.18114588
H      -2.54781374     -0.89620825     -1.23086833
H       0.02936173      0.69262721      1.76874322
H       0.09718370     -1.05657579      1.46640296
H       0.78347382      1.98264186     -0.27523419
H       2.77923519     -0.78006407     -0.77649765
H       2.02401132     -1.67303973      0.45476378
