13
b3lypvtz=-237042.59082184
C      -2.33139884      0.15307963     -0.58929489
C      -0.97218450      0.20430191      0.03311881
N      -0.73611744      0.63241645      1.18681387
O      -0.04704427     -0.30443434     -0.89922450
C       1.28069204     -0.41287316     -0.69040925
N       1.88464666     -0.07381431      0.37250700
O       3.26582985     -0.32742879      0.23818132
H      -2.35208405      0.74476114     -1.50578235
H      -2.58801300     -0.87286139     -0.85770912
H      -3.06053728      0.54155772      0.11469456
H       0.25068768      0.58489164      1.42684455
H       1.79157919     -0.83236685     -1.55159488
H       3.61394399     -0.03722967      1.08690309
