17
b3lypvtz=-191946.30393811
C       1.51603383      0.20099910      0.67496920
C       1.94126948     -0.33057892     -0.71545830
N       0.56897484     -0.88176947     -0.93477783
C       0.09313925     -0.17308042      0.26474889
C      -1.06457595     -0.60929775      1.11823827
C      -1.14139160      0.66421647      0.28836041
N      -1.92845692      0.76410884     -0.92360342
H       1.70098258      1.25756722      0.86354493
H       1.90048365     -0.38509036      1.50923836
H       2.71744922     -1.09635133     -0.72412418
H       2.21823265      0.46104398     -1.41486222
H       0.14073014     -0.52721309     -1.78428631
H      -0.97259640     -0.53473095      2.19529486
H      -1.63429855     -1.46235886      0.76768729
H      -1.08896237      1.60699677      0.82055935
H      -2.81924886      1.20448632     -0.72365155
H      -2.14776498     -0.15894755     -1.28187775
