15
b3lypvtz=-191218.06972455
C       0.18962684      0.02115690     -1.09998833
C       1.09502850      0.21200052      0.15400821
C       0.03620785     -0.58728908      0.97179900
C      -0.99197974     -0.30310421     -0.15179282
N      -1.75641768      0.90503657      0.14659190
C       2.45357037     -0.29164591      0.10707436
N       3.52328685     -0.71624600      0.06219510
H       0.07578847      0.88368943     -1.75380318
H       0.49550788     -0.84452201     -1.68434126
H       1.10562607      1.25590354      0.46118157
H       0.29408056     -1.64287118      1.03369437
H      -0.19946469     -0.20817154      1.96434263
H      -1.60637914     -1.15905700     -0.44870435
H      -2.29944789      1.19145507     -0.66029454
H      -2.41503423      0.73313670      0.89803734
