17
b3lypvtz=-191999.67427148
C       1.97922400     -0.63745264     -0.73960810
C       1.18119402     -0.18088660      0.48318278
C       0.68458322      1.27596347      0.33822142
N      -0.60934244      1.10548123     -0.29775664
C      -1.19525728     -0.10941289     -0.04427920
N      -2.40424555     -0.37522758     -0.34780920
C      -0.13818061     -0.96404195      0.64526053
H       2.89253513     -0.05092955     -0.85473978
H       1.39162459     -0.52847295     -1.65330331
H       2.26612880     -1.68655435     -0.64829406
H       1.80596054     -0.27633342      1.37179697
H       1.35310593      1.87901487     -0.27891466
H       0.60362845      1.76228911      1.31892347
H      -1.19208654      1.88209236     -0.56227960
H      -2.63146691     -1.33482057     -0.10440037
H      -0.09733608     -1.96634000      0.21926140
H      -0.41393328     -1.06567253      1.69784634
