18
b3lypvtz=-205207.6220789
C      -3.04154481     -0.27842421     -0.15337594
O      -1.70483519      0.01445783     -0.49086241
C      -0.78375821     -0.33364526      0.54351336
C       0.59065109      0.13537034      0.18698231
C       0.78897534      1.62229888      0.07177639
C       1.57040560     -0.76247528      0.02233564
N       2.92386773     -0.50652885     -0.18045735
H      -3.19100154     -1.35213123      0.02261683
H      -3.36215215      0.26349974      0.74640866
H      -3.66549615      0.02949076     -0.99105713
H      -1.12341951      0.13366193      1.48241223
H      -0.79171462     -1.42037260      0.70102183
H      -0.08439825      2.08306831     -0.39098739
H       1.65461080      1.88558115     -0.53975737
H       0.92928264      2.09328086      1.05100460
H       1.34211675     -1.81854401      0.11218182
H       3.41063639     -1.20427411     -0.72027199
H       3.15249809      0.42730475     -0.48432209
