16
b3lypvtz=-181130.09034285
C       2.87361271     -0.00295644      0.11427236
C       1.79739060     -0.68236761     -0.26605615
C       0.44457817     -0.12539548     -0.49940422
C       0.01299167      1.21582218     -0.01702483
C      -0.55364635     -0.00556294      0.66548900
C      -1.96430355     -0.42975854      0.47871683
N      -2.77610602     -0.12565944     -0.44795185
H       3.82069759     -0.49964251      0.27661271
H       2.85355146      1.06820451      0.27133397
H       1.88396822     -1.75323558     -0.42732271
H      -0.02877853     -0.46913019     -1.41306121
H       0.70766238      1.81416204      0.55472482
H      -0.65508281      1.79035580     -0.64552956
H      -0.13758182     -0.23805448      1.63675216
H      -2.33673380     -1.11184852      1.24638746
H      -2.35915691      0.52196619     -1.12131581
