18
b3lypvtz=-205199.63846412
C      -1.65199844     -1.77117940     -0.06468501
C      -0.82575023     -0.54655946     -0.37640766
C      -1.01579731      0.74072131      0.37983911
O      -0.90664504      1.97694355     -0.28102521
C       0.24341896     -0.04626934      0.57937341
C       1.57334215      0.44486677      0.06485840
N       2.49824719     -0.68735474     -0.09612034
H      -1.88110410     -1.82779971      1.00125045
H      -1.12206553     -2.68835428     -0.33193020
H      -2.60085308     -1.76414656     -0.60697768
H      -0.58580957     -0.40124446     -1.42519476
H      -1.73385344      0.73562414      1.19619448
H      -1.69550762      2.10473315     -0.81722964
H       0.31596578     -0.58138864      1.51964320
H       1.41657785      1.02824608     -0.84891131
H       2.01233022      1.12537052      0.79919848
H       2.15970046     -1.30809321     -0.82305896
H       3.40625775     -0.35586773     -0.40060077
