14
b3lypvtz=-250305.31295233
N       1.97255158     -1.16364655      0.05922116
C       1.70391890      0.02629746     -0.28493303
O       2.54087438      1.08204892     -0.44867591
O       0.47315061      0.45153915     -0.56340169
C      -0.58193207     -0.51662571     -0.43739744
C      -1.88776517      0.16987802     -0.74519590
O      -2.22905080      1.02066583      0.34089275
H       2.96062488     -1.31026083      0.23454007
H       3.43847518      0.79502398     -0.25283830
H      -0.58450478     -0.92077622      0.57480572
H      -0.40224085     -1.33656265     -1.13448270
H      -1.78923027      0.73236309     -1.67986289
H      -2.64790863     -0.60789205     -0.89294442
H      -2.96696295      1.57794755      0.08017257
