13
b3lypvtz=-239446.27566955
O      -2.07487629      1.88399014     -0.59742537
C      -1.55086324      0.79962127     -0.65555598
C      -1.19506617      0.03342777      0.58106258
O      -0.86897688     -1.35623416      0.41591812
C       0.15495481     -0.49253535      0.87933139
C       1.39537416     -0.29717343      0.05169224
O       1.07173948      0.06038518     -1.27942627
H      -1.33354399      0.29021501     -1.60668540
H      -1.83432506      0.26531344      1.42892516
H       0.38722220     -0.61296486      1.93705698
H       1.96904484     -1.23243032      0.08233679
H       1.99637512      0.47869779      0.54279331
H       1.88304102      0.17978751     -1.78012355
