13
b3lypvtz=-237091.34223995
C      -2.81149176     -0.26399209      0.00003320
N      -1.46363408     -0.80193143     -0.00000545
C      -0.48480052     -0.00404587      0.00001772
O      -0.50395789      1.35552951      0.00007578
N       0.81362211     -0.49391168     -0.00001520
C       1.99152656      0.21926507     -0.00000635
O       3.07641165     -0.31255605     -0.00003253
H      -3.02461066      0.34419529      0.88930284
H      -3.52155267     -1.08824215      0.00007543
H      -3.02466664      0.34415614     -0.88924849
H      -1.42012386      1.65438618      0.00009848
H       0.88732588     -1.50121612     -0.00005997
H       1.84350488      1.30590022      0.00006554
