12
b3lypvtz=-202922.5823927
C      -2.63500072     -0.56501983      0.27901213
C      -1.55765490     -0.06372765      0.10529218
C      -0.27495784      0.52822113     -0.07257476
C      -0.11939991      1.83689284     -0.31053348
C       0.90242188     -0.42714352     -0.06222295
N       2.06465828      0.08830120      0.44105606
O       0.81737741     -1.55101432     -0.50983299
H      -3.58450805     -1.01787159      0.42028923
H       0.85907654      2.26293654     -0.48236261
H      -0.97166518      2.49856445     -0.37347255
H       2.05059659      0.89100990      1.04405987
H       2.83877789     -0.54978917      0.52571086
