18
b3lypvtz=-205233.83771162
C      -2.91322566     -0.21570021      0.02521237
C      -1.51245299      0.06422985     -0.51675498
C      -0.46280648      0.09662588      0.59774018
N       0.88777770      0.38301142      0.12400475
C       1.28325726      1.76375199     -0.06522080
C       1.73929698     -0.64229413     -0.13985437
O       1.47822320     -1.82356440     -0.02305559
H      -3.64828135     -0.24685409     -0.77972821
H      -3.22871811      0.55567109      0.73167368
H      -2.94951163     -1.17542975      0.54459421
H      -1.22770404     -0.70783221     -1.23448649
H      -1.50956184      1.01541887     -1.05617226
H      -0.42909296     -0.87257810      1.09394875
H      -0.72692433      0.85144306      1.34407626
H       0.64972521      2.26621940     -0.80029508
H       2.31128697      1.80192175     -0.42297145
H       1.22472880      2.32093710      0.87390226
H       2.72862827     -0.28680152     -0.47911924
