17
b3lypvtz=-215314.97176817
C       2.56981046     -0.37524431      0.68367663
C       1.74264391     -0.36471014     -0.60069393
N       0.30956608     -0.50538638     -0.38039480
C      -0.46218082      0.59171805     -0.07968174
O      -0.03986936      1.73800403     -0.13344851
N      -1.76525671      0.32081955      0.28465115
C      -2.45504746     -0.93796643      0.08673855
H       3.63275531     -0.27655615      0.45422674
H       2.43129546     -1.30670741      1.23714113
H       2.28083928      0.45567418      1.32693031
H       1.88924610      0.57532562     -1.12827544
H       2.05821610     -1.17157441     -1.26507585
H      -0.02878969     -1.41539175     -0.11939784
H      -2.32003424      1.15786575      0.33741873
H      -3.49965516     -0.80990825      0.36316143
H      -2.05140292     -1.72436746      0.73142763
H      -2.41685332     -1.28733048     -0.95027417
