14
b3lypvtz=-229595.6810636
C       2.14352200      0.63412068      0.25218821
C       1.08822961     -0.13821027      0.01233392
F       1.26896399     -1.46019595     -0.17634075
N      -0.24615031      0.22477563     -0.09950402
C      -0.55883097      1.64158895     -0.18581904
C      -1.26796518     -0.71453156      0.06654513
N      -2.51775593     -0.51605814      0.15961353
H       3.12653119      0.19242115      0.24597788
H       2.04397849      1.68474975      0.46246156
H      -1.51509849      1.76724183     -0.68900818
H      -0.61212627      2.11436918      0.79851861
H       0.20459953      2.13946385     -0.77903595
H      -0.89818276     -1.73169974      0.10499241
H      -2.77819290      0.46718063      0.13423668
