17
b3lypvtz=-217663.7156012
C       2.66910457     -0.01481624     -0.06667811
O       1.38621980      0.48592687     -0.40440822
C       0.37639349     -0.46486802     -0.28132481
C      -0.23175264     -0.75870512      1.08382638
C      -1.01231219     -0.00992254      0.02855073
C      -1.31755162      1.45149504      0.20291886
O      -2.09588435     -0.64728852     -0.61242274
H       2.96237970     -0.83768482     -0.72902236
H       2.70097518     -0.37081689      0.96866915
H       3.37412112      0.80544999     -0.18692064
H       0.47110604     -1.30905141     -0.96425039
H      -0.50789131     -1.78099916      1.31249212
H       0.13560614     -0.18885956      1.92726004
H      -1.54995266      1.89823758     -0.76482472
H      -0.46588164      1.97776311      0.62715395
H      -2.18170699      1.57722943      0.85663795
H      -1.94958267     -1.59763575     -0.62370817
