16
b3lypvtz=-204447.40065148
C       3.24143837      0.39549880      0.30780938
C       1.76639873      0.37111384      0.04259480
C       1.05667032     -0.75116478     -0.08222809
N      -0.32728428     -0.85110167     -0.28208806
C      -1.05907917      0.26169855     -0.78458151
C      -2.21528951      0.60887595     -0.21916684
O      -2.76327710     -0.00838380      0.85554724
H       3.78357563      0.93237955     -0.47619876
H       3.65449741     -0.61318742      0.36407457
H       3.47308165      0.90173258      1.24981587
H       1.26046536      1.32762042     -0.02690784
H       1.54339039     -1.71673291      0.00585322
H      -0.59886748     -1.73569277     -0.68723033
H      -0.65503291      0.82450300     -1.61855975
H      -2.82188856      1.42289029     -0.58956877
H      -2.11109585     -0.65709262      1.16389388
