13
b3lypvtz=-239666.83134401
C      -2.06878190     -0.64724983      0.48416401
N      -0.80435585     -0.78151658      0.37673503
C       0.00821261      0.29755799      0.07854520
C       1.33124483      0.03025522      0.00315513
N       1.95855762     -1.18471858      0.11064988
F       2.19283816      1.03807320     -0.24815117
N      -0.53090335      1.59739603     -0.09518717
H      -2.58534453      0.30626837      0.37628018
H      -2.66382341     -1.52396515      0.71768798
H       2.78349410     -1.17961463      0.69649496
H       1.29964781     -1.90956344      0.36153156
H       0.19526317      2.29650622     -0.16344904
H      -1.11604927      1.66057121     -0.92247333
