18
b3lypvtz=-210212.43934338
F       3.13694652     -0.02894300     -0.24412855
C       1.90866802      0.37624778      0.28650395
C       0.81449510     -0.58293737     -0.13584240
C      -0.55153092     -0.18476431      0.40350838
C      -1.26403345      1.07885017     -0.15829048
C      -2.60405847      0.30365305     -0.09885952
C      -1.79196490     -1.01411680     -0.02347619
H       2.01717974      0.40499832      1.37373225
H       1.71821800      1.38951575     -0.07454403
H       0.78382319     -0.62302136     -1.22854221
H       1.07488028     -1.58653726      0.21303841
H      -0.51486221     -0.12583505      1.49533004
H      -0.96078178      1.27676405     -1.18850573
H      -1.18657990      2.00547820      0.41003294
H      -3.14361934      0.49983404      0.82793662
H      -3.29405057      0.42431198     -0.93278490
H      -2.13932861     -1.79165721      0.65639966
H      -1.64938069     -1.45487497     -1.01181926
