14
b3lypvtz=-203691.17297045
N      -3.64830865      0.17006225     -0.31115807
C      -2.46474454     -0.23665069     -0.56014784
C      -1.21781541      0.24706062      0.00629475
C      -0.01717210     -0.26080131     -0.33175842
C       1.25107909      0.17052679      0.19005067
C       2.41452251     -0.37999127     -0.19037685
O       3.64787914     -0.04162656      0.24359483
H      -3.62995021      0.92628565      0.37768600
H      -2.36617267     -1.04779759     -1.28677850
H      -1.28345955      1.05373109      0.73167643
H       0.00859963     -1.06684864     -1.06099660
H       1.25586544      0.97484281      0.92090051
H       2.46336827     -1.18323621     -0.91473009
H       3.58640904      0.67444308      0.88764320
