13
b3lypvtz=-216142.34287772
C      -0.32661388      1.23878784      0.05232087
C      -0.29342474     -0.27157977     -0.17264806
C      -1.45102396     -1.14702427      0.00007071
O      -1.00048373     -0.80202729     -1.31640668
C       1.13110728     -0.62112629      0.02578454
C       1.80649756      0.51762016      0.17608677
O       1.05597085      1.65383929      0.16003919
H      -0.82744252      1.50889209      0.98343444
H      -0.78978634      1.76183755     -0.78271854
H      -2.40889960     -0.72229886      0.29047393
H      -1.30379129     -2.18426062      0.28735724
H       1.54264398     -1.61502286     -0.00841200
H       2.86524639      0.68236302      0.30461761
