13
b3lypvtz=-213702.46555514
C      -2.13848554      0.79300939      1.67781520
C      -1.48872578      0.51920659      0.70845282
C      -0.66162191      0.19405740     -0.45977189
N      -0.95881929     -1.15087184     -0.94435680
C       0.79601523      0.48678320     -0.13018554
N       1.67705873     -0.40055583     -0.31901963
O       2.95898720      0.05895684      0.02155648
H      -2.72486445      1.02937375      2.53063776
H      -0.94383079      0.89511522     -1.25665758
H      -0.32963764     -1.36924961     -1.70906480
H      -0.75332700     -1.82307392     -0.21340687
H       1.05266707      1.47265155      0.25554925
H       3.51478417     -0.70550273     -0.16164840
