16
b3lypvtz=-204460.83701611
C      -0.19398196     -1.58521380      0.42745504
C      -0.21757658     -0.09629741      0.14530231
N       0.96846306      0.61912216      0.54493028
C       2.08952247      0.75353697     -0.21518645
O       3.13731401      1.22251134      0.17505033
C      -0.93472610      0.40828704     -1.08024612
C      -1.51900055      0.64850970      0.28726518
H      -1.12875318     -2.05746157      0.12318852
H      -0.05253816     -1.77463812      1.49400554
H       0.62322400     -2.07009262     -0.11026876
H       1.07748975      0.85833864      1.52098257
H       1.93963028      0.40365534     -1.25127506
H      -0.51603647      1.25742331     -1.60017310
H      -1.40483483     -0.32562079     -1.71981495
H      -1.47746113      1.65618424      0.67592362
H      -2.39093461      0.08175557      0.58276106
