19
b3lypvtz=-192726.87472594
C       2.83484452     -0.66568443      0.14774328
N       1.75924069     -0.32433582     -0.44196443
N       0.58702851     -0.35858834      0.23508764
C      -0.46936640      0.51761665     -0.27709978
C      -0.19043779      1.99687751      0.00450030
C      -1.81847718      0.06661945      0.29243203
C      -2.25031688     -1.32985867     -0.15076663
H       2.87572824     -0.95055417      1.20259669
H       3.74805354     -0.68660072     -0.43088257
H       0.67654229     -0.34641932      1.25072084
H      -0.46994372      0.36071199     -1.35795385
H       0.78210121      2.28410700     -0.39539102
H      -0.19031848      2.19583847      1.07994639
H      -0.94999174      2.63339259     -0.45345235
H      -1.77370975      0.11429728      1.38681571
H      -2.57269400      0.79921438     -0.00482630
H      -3.20603537     -1.60573392      0.29746513
H      -1.51163484     -2.07880584      0.13363152
H      -2.36640685     -1.37656409     -1.23565760
