15
b3lypvtz=-193582.847642
C      -0.28831794      1.58605315      0.17455200
C       0.20194835      0.16758868     -0.06222153
C      -0.57538958     -0.71967311     -1.03572219
C      -0.63381537     -0.99500184      0.43531975
O      -1.78682087     -0.67731899      1.16244248
C       1.63153155     -0.00265452     -0.02029590
C       2.82533993     -0.13144585      0.01460350
H      -1.37526684      1.61780074      0.19320573
H       0.07359063      2.24705725     -0.61385364
H       0.07884409      1.96244822      1.12983700
H      -1.44914450     -0.26662359     -1.48499734
H      -0.01920215     -1.39306048     -1.67178240
H      -0.08257433     -1.85065063      0.81050822
H      -2.48043997     -1.29926177      0.92003621
H       3.87971699     -0.24525727      0.04836811
