15
b3lypvtz=-237811.7871282154
C       1.86488111     -0.41543766     -0.74423302
C       0.50178515     -0.71525631     -0.30875974
O       0.81656313     -0.64543932     -1.69905152
C      -0.46627111      0.33790271      0.23422287
N      -1.72333786      0.31952201     -0.48855897
N      -0.75168090      0.13637962      1.65397308
O       0.14094588      1.60613270      0.08629844
H       2.21327814      0.60757545     -0.69143152
H       2.62216008     -1.19184219     -0.70162904
H       0.27706792     -1.72279153      0.03807225
H      -1.63680700     -0.09638161     -1.40627173
H      -2.45739206     -0.11966327      0.04668414
H       0.00391895      0.53646228      2.19552592
H      -0.81918706     -0.84840706      1.88639983
H      -0.58592437      2.21124417     -0.10124099
