15
b3lypvtz=-242856.38176016
C      -2.22765855     -1.11659614     -0.07743762
N      -0.87097669     -0.63979603      0.11422115
C      -0.54043535      0.67784891      0.07005983
O      -1.34775886      1.57056371     -0.12979491
C       0.93601362      0.99299405      0.31680504
C       1.94672473      0.11957852     -0.39919089
F       1.95130927     -1.18173746      0.14060894
H      -2.58918542     -1.64037575      0.80970797
H      -2.86197415     -0.25391112     -0.26145521
H      -2.28911002     -1.79336010     -0.93188321
H      -0.13680578     -1.30621944      0.28704089
H       1.13149388      0.95228573      1.39201683
H       1.08215152      2.02635293      0.00300912
H       2.95636980      0.51189382     -0.27585004
H       1.72426098      0.02162137     -1.46282188
