12
b3lypvtz=-249574.29383917
N       0.59983363     -0.01403270     -1.41425416
C       0.85457293      0.05467866     -0.17385064
O       2.07554324      0.16612579      0.39712950
C      -0.21965440      0.01943705      0.87654197
C      -1.69382647     -0.10333823      0.46018016
O      -2.54218348     -0.12935125      1.31155937
O      -1.97393533     -0.17650187     -0.83789693
H       1.40754660      0.01935939     -2.02997139
H       2.76361807      0.18834362     -0.28073492
H      -0.00905866     -0.80672863      1.55861472
H      -0.13357653      0.91890046      1.48940017
H      -1.12907962     -0.13679229     -1.35661786
