12
b3lypvtz=-223806.70203185
C      -2.39905637      0.02461318     -0.00004542
C      -1.23443196     -0.60973789      0.00005391
N       0.04148057     -0.00232011      0.00003841
C       1.19721949     -0.79739828      0.00008656
O       1.16122812     -2.00296437     -0.00000079
N       0.06858334      1.37426372     -0.00011564
N       1.19872302      1.88392560      0.00018956
H      -3.30878364     -0.55645371     -0.00003036
H      -2.47825013      1.10041896     -0.00014322
H      -1.15099963     -1.68548825      0.00015384
H       2.11284116     -0.20306552     -0.00030938
H       1.03984104      2.89432166     -0.00002048
