13
b3lypvtz=-169492.79721117
C       1.90267126      1.79589996     -0.21307507
C       1.40057222      0.76922412      0.15341011
C       0.81845920     -0.45865959      0.60540280
C       0.26663018     -1.46370163     -0.37510336
C      -0.69608184     -0.70954240      0.50839650
C      -1.58119112      0.27558376     -0.03657881
C      -2.33723791      1.09423195     -0.48234368
H       2.33870970      2.70625813     -0.54019277
H       1.27326419     -0.86869483      1.49858886
H       0.42670188     -2.51203084     -0.16718263
H       0.28828172     -1.18872755     -1.41880143
H      -1.10198342     -1.26270232      1.34624074
H      -2.99879605      1.82306122     -0.87866125
