19
b3lypvtz=-216035.35113817
C      -1.02976404      1.83894084      0.30226379
O      -0.23894433      0.75209665      0.75852956
C       0.06931157     -0.23244169     -0.24119148
C      -0.51275214     -1.57148025      0.19572547
N      -1.96398417     -1.46512754      0.36157316
C       1.58172620     -0.29164918     -0.42050824
N       2.09741870      1.01663411     -0.82996348
H      -2.00377881      1.50003986     -0.06433783
H      -1.18109480      2.49997769      1.15530059
H      -0.52635018      2.39415024     -0.49532957
H      -0.39073083      0.06418333     -1.18755416
H       0.01064508     -1.89974545      1.10506348
H      -0.30699224     -2.31084056     -0.58232861
H      -2.36339496     -2.37129965      0.57267517
H      -2.16123751     -0.86721777      1.15578571
H       1.81072366     -1.01496791     -1.20707257
H       2.02919775     -0.66850353      0.51023783
H       3.08868255      0.95976474     -1.02856065
H       1.99131848      1.66748607     -0.06030815
