15
b3lypvtz=-216925.71333043
O       2.30118434     -0.92905534     -0.56535244
C       1.14440798     -0.28612612     -0.18156472
C       1.11345741      0.93647669      0.35102145
O      -0.03523265      1.60337172      0.70934326
C      -1.22624822      1.05645857      0.14207350
C      -1.28337072     -0.45663152      0.30325991
C      -0.08622994     -1.10739068     -0.40102921
H       3.05468363     -0.34415309     -0.43030201
H       2.00338604      1.51689973      0.56018306
H      -2.04955003      1.54992521      0.65603861
H      -1.26487534      1.32465157     -0.92118867
H      -2.22436612     -0.83506458     -0.09970816
H      -1.26523226     -0.69636973      1.36862776
H      -0.27039420     -1.21743565     -1.47459730
H       0.08828008     -2.11565675     -0.01680503
