16
b3lypvtz=-204432.63720471
C      -1.34745701      1.26214772      0.69035454
C      -0.98664863      0.16019774      0.02503710
C       0.39238890     -0.09549289     -0.50568170
C       1.24337020     -1.20478808      0.16129685
O       2.38337207     -0.32110467      0.24460098
C       1.58012054      0.81551166     -0.15155846
N      -1.84634578     -0.92244902     -0.18923410
H      -2.36131147      1.39883401      1.04391967
H      -0.64015365      2.04311028      0.91552769
H       0.33184807     -0.25552759     -1.58590065
H       0.88248081     -1.50150212      1.14958392
H       1.45992820     -2.09426249     -0.43312970
H       2.03517866      1.36856973     -0.97474483
H       1.40666338      1.49048040      0.68900854
H      -2.82197440     -0.73247345     -0.01754617
H      -1.71145991     -1.41125120     -1.06153366
