19
b3lypvtz=-171837.36653115
C      -1.62675725     -0.00000172      0.13457431
C      -0.82941030      1.28762480     -0.17087530
C       0.67642919      1.06302806      0.03042879
C       0.93751570      0.00000168      1.13663482
C       0.67643169     -1.06302623      0.03042971
C      -0.82940730     -1.28762665     -0.17087415
C       1.17671456      0.00000105     -0.98150936
H      -2.57967500     -0.00000305     -0.39689827
H      -1.87993423     -0.00000154      1.19605854
H      -1.18575415      2.09475964      0.47425218
H      -0.99926170      1.61661333     -1.20021214
H       1.22002081      2.00619759      0.08682746
H       0.30701329      0.00000132      2.02656858
H       1.98307239      0.00000304      1.44406086
H       1.22002548     -2.00619446      0.08682918
H      -0.99925796     -1.61661654     -1.20021068
H      -1.18574923     -2.09476173      0.47425410
H       2.26368071      0.00000228     -1.06877901
H       0.73407829      0.00000011     -1.98003663
