17
b3lypvtz=-191971.30987062
C       2.28824367     -0.72584859     -0.17162757
C       1.09426084     -0.44682203     -0.67850787
C      -0.02655773      0.28818095      0.03300620
C      -0.67211556      1.29539621     -0.93206469
N       0.48281537      0.90642408      1.26282321
C      -1.01615812     -0.79320588      0.48912820
N      -2.17666184     -1.04928439      0.06031251
H       3.02605534     -1.26361247     -0.75213397
H       2.55817733     -0.43611466      0.83467449
H       0.84731185     -0.77488961     -1.68301782
H      -1.03279163      0.81871958     -1.84622091
H      -1.51236777      1.80403876     -0.45592719
H       0.06153524      2.04780074     -1.22335062
H      -0.26091020      1.39886356      1.74391175
H       1.20235441      1.58562029      1.04063821
H      -0.61486224     -1.40816292      1.29643978
H      -2.45113596     -0.41346263     -0.69058771
