15
b3lypvtz=-191191.13468359
C       1.02768843      0.87394293     -0.48098264
C       1.45804871     -0.01143552      0.67326742
N       0.67372133     -0.84475985      1.22006182
C      -0.68122975     -0.86967308      0.63296331
C      -1.17169246      0.57736366      0.43552768
N      -0.37527751      0.62885298     -0.85162378
C      -0.56594004     -0.87278085     -0.90328933
H       1.66988822      0.69820651     -1.34967256
H       1.15460677      1.92786364     -0.21430171
H       2.47904480      0.06945848      1.04908066
H      -1.29628426     -1.60362096      1.14928811
H      -0.89300847      1.31046774      1.19265213
H      -2.23446865      0.65708416      0.20841343
H       0.25448186     -1.43825216     -1.34537382
H      -1.49957898     -1.10271766     -1.41601073
