17
b3lypvtz=-215263.89200126
C       3.43185668      0.05520506      0.07553925
N       2.11700406     -0.55653689      0.16429977
N       1.08428911      0.33885597      0.09312480
C      -0.04377510     -0.05647651     -0.34477518
C      -1.22645772      0.86157384     -0.36028652
C      -2.39939749      0.35010695      0.46883849
O      -2.87065451     -0.85818867     -0.12881069
H       4.18553477     -0.71228224      0.25207288
H       3.51995256      0.81260393      0.85262888
H       3.63120227      0.53105398     -0.89295042
H       2.00433852     -1.36000477     -0.44981853
H      -0.19254368     -1.08032175     -0.70222847
H      -0.91483102      1.83676825      0.01587893
H      -1.58111935      0.99481227     -1.38789834
H      -3.19140315      1.10816406      0.48505603
H      -2.07535805      0.17454239      1.50093020
H      -3.55741890     -1.23313989      0.42894994
