13
b3lypvtz=-242072.84501116
C       0.31079212     -0.72190830     -0.52945025
C       1.64045460     -0.72808628     -0.33003236
N       2.40378105      0.25686076      0.28904287
C      -0.59848224      0.31290654     -0.08634789
C      -1.91886144      0.29084888     -0.25811499
O      -2.78986673      1.19945878      0.22118637
F      -2.54397801     -0.70814010     -0.91958872
H      -0.10897803     -1.55180445     -1.07951310
H       2.22663716     -1.54539681     -0.72997460
H       1.91124615      0.86334643      0.92616377
H       3.27052507     -0.06718320      0.68643420
H      -0.22688071      1.19136080      0.42358475
H      -3.57638898      1.20773695     -0.33811549
