14
b3lypvtz=-201295.78975933
C      -3.51866490     -0.21018032     -0.00001472
C      -2.32461194      0.37704574     -0.00000329
N      -1.10625605     -0.29003318      0.00000396
C       0.11198306      0.30531504      0.00002972
N       1.19684425     -0.37479561      0.00004084
C       2.39100888      0.34526390      0.00004944
N       3.55283537     -0.16021747     -0.00007679
H      -4.41541224      0.38876045     -0.00004870
H      -3.63341327     -1.28618356      0.00000475
H      -2.22930803      1.45554213     -0.00000107
H      -1.10130021     -1.30047177     -0.00000263
H       0.07975453      1.39930410      0.00009482
H       2.30736755      1.43934225     -0.00018373
H       3.47915900     -1.17983970     -0.00001158
