18
b3lypvtz=-181876.15241432
C      -0.91393458     -1.18454020     -0.45732376
C      -0.47386327      0.15219297      0.10639047
C      -1.35006619      1.35060243     -0.14125703
C      -1.27176490      0.74150413      1.23875695
N       0.93746586      0.48395053      0.17163897
C       1.84511658      0.09787664     -0.89759701
C       1.93480235     -0.53831239      0.44681412
H      -2.00107681     -1.25795515     -0.43187609
H      -0.51985924     -2.02210885      0.12194193
H      -0.60605631     -1.31266876     -1.49721756
H      -0.85075699      2.29606179     -0.29543928
H      -2.25651484      1.21042165     -0.71462051
H      -2.12542530      0.18751446      1.60521183
H      -0.72022090      1.28705522      1.99040058
H       1.47351733     -0.51897378     -1.70820676
H       2.55962184      0.85480314     -1.19791498
H       2.71632668     -0.25333276      1.14074566
H       1.62268869     -1.57409103      0.51955246
