12
b3lypvtz=-226244.99585938
N       1.89563544      1.86306032     -0.46845785
C       1.56648733      0.76136888     -0.52263555
C       1.09280445     -0.61496255     -0.54627964
C      -0.10136507     -0.84149517      0.40495438
O      -0.07992139     -1.72811371      1.21614764
C      -1.30986321      0.08105925      0.26107129
O      -1.34044858      0.82882496     -0.93629989
H       1.88803796     -1.29841831     -0.25358417
H       0.77199780     -0.85311054     -1.56385553
H      -2.19622239     -0.55420607      0.28361616
H      -1.34675584      0.71199153      1.15609543
H      -0.84028650      1.64390141     -0.82507227
