15
b3lypvtz=-191246.43631541
C       2.51421364     -0.26049814     -0.53631094
C       1.59704351      0.36005573      0.52871492
C       0.13885826      0.22259083      0.23932489
C      -0.82931770      1.13833007     -0.08003690
N      -2.04804761      0.52942146     -0.27466405
C      -1.83139627     -0.74554111     -0.07751027
N      -0.52500911     -0.98887137      0.23510159
H      -0.12121025     -1.88662871      0.43925217
H       2.34429913      0.19883787     -1.51049686
H       2.33914469     -1.33300360     -0.64142272
H       3.56352490     -0.12210887     -0.27103784
H       1.81619112      1.42490049      0.62057869
H       1.82742925     -0.08063841      1.50458468
H      -0.71229821      2.20532687     -0.17732952
H      -2.56541236     -1.53219512     -0.14368383
