18
b3lypvtz=-202810.37525877
C      -3.47429938      0.02195034      0.08227610
N      -2.12523969      0.56367460      0.00004830
C      -1.08750628     -0.45937668     -0.02084489
C       0.30013992      0.16938838     -0.03828131
N       1.32132429     -0.86394435     -0.04727333
C       2.53878904     -0.50833198      0.00167589
N       3.05261451      0.77001633      0.02033072
H      -3.71402332     -0.71054038     -0.70498471
H      -4.20090645      0.83328078      0.02570472
H      -3.60931147     -0.47566259      1.04495838
H      -2.04562408      1.14115236     -0.82904854
H      -1.17378850     -1.15238988     -0.87258631
H      -1.18394713     -1.06725180      0.88225829
H       0.39381077      0.81406770     -0.92611396
H       0.38838249      0.83026247      0.83650336
H       3.30627707     -1.28061771     -0.01139551
H       4.01041795      0.88520125      0.30280414
H       2.44230226      1.53316517      0.25992165
