16
b3lypvtz=-204423.21616653
C      -0.17483711      0.65382555     -0.55567226
C      -1.18909633      0.20540476      0.55565352
C      -0.03925556     -0.57232081      1.25265577
C       0.94828786      0.18106755      0.36429142
C       2.37841777      0.00836230      0.14198351
O       1.87843134      1.10785448      0.92247950
N      -2.38305514     -0.55490502      0.24963873
H      -0.26348370      0.04070442     -1.45555777
H      -0.15526629      1.70714243     -0.83410715
H      -1.48405740      1.06452580      1.15842087
H       0.07814108     -0.44465631      2.32748835
H      -0.07856296     -1.63893830      1.02034550
H       2.92626044     -0.74344030      0.70284347
H       2.81417237      0.28241821     -0.81451223
H      -2.17456967     -1.32070097     -0.38166584
H      -3.08152664      0.02365623     -0.20199738
