13
b3lypvtz=-190439.8188769
C      -2.79849174     -0.66189232      0.19035208
C      -1.91516166      0.14632815      0.06833020
C      -0.94568968      1.16884125     -0.07808851
C       0.38765046      1.02979328     -0.13561729
C       1.17272654     -0.22527841     -0.05991264
N       0.75655996     -1.41835320     -0.24331418
N       2.52206809     -0.00555567      0.17993717
H      -3.56172076     -1.39180231      0.29907907
H      -1.35036273      2.17290868     -0.14943119
H       0.96955736      1.93774514     -0.24531243
H      -0.22729122     -1.43461421     -0.48854122
H       2.76576065      0.78560374      0.75303612
H       3.03419573     -0.84730013      0.39529983
