15
b3lypvtz=-219531.14497148
C       3.26335850      0.13181234      0.59396017
C       2.22323929      0.33338923     -0.51770850
C       0.98758476     -0.48119496     -0.30829334
C      -0.24171694      0.01914421     -0.17469017
N      -1.33442228     -0.83273433      0.02584388
C      -2.50061035     -0.40618735      0.15014302
F      -2.85731635      0.90547260      0.10784934
H       2.86650458      0.44404968      1.56093312
H       3.55277092     -0.91755123      0.67605895
H       4.16468741      0.71241784      0.39233533
H       1.96154032      1.39111923     -0.59551110
H       2.67635664      0.05275931     -1.47498135
H       1.10232543     -1.55938764     -0.24992321
H      -0.41711095      1.09027160     -0.22100664
H      -3.36727397     -1.03527753      0.30691849
