17
b3lypvtz=-194363.21139563
C       0.36406498      1.51777319     -0.07278904
C       0.26916143      0.20655385      0.12601989
C       1.42867556     -0.76122046      0.12733131
C       2.80546956     -0.16725768     -0.15234580
C      -1.05193193     -0.43767263      0.38272100
C      -2.07242113     -0.59094023     -0.66818360
O      -2.22260706      0.37581774      0.37274323
H      -0.51876072      2.14091620     -0.03929189
H       1.31067262      2.00069646     -0.26810936
H       1.21777764     -1.55170354     -0.60271719
H       1.44445059     -1.27235011      1.09729556
H       3.56759799     -0.94685004     -0.12512964
H       2.84569072      0.30292281     -1.13597143
H       3.07355741      0.58582908      0.58999689
H      -1.04873722     -1.18852025      1.17153410
H      -2.76783782     -1.42411609     -0.63302194
H      -1.87030063     -0.17992630     -1.65192208
