13
b3lypvtz=-213713.05682319
N       1.79505736      0.34842605     -0.21541445
C       0.59336138     -0.41071222     -0.03087522
C      -0.61289075     -0.03575200      0.94295258
N      -1.52042107     -0.88275372      0.06294636
C      -0.63964926     -0.16783081     -0.95640424
C      -0.88462585      1.07671596     -0.07708520
O      -1.05930645      2.24920844     -0.15249976
H       2.47591047      0.16326561      0.50941681
H       1.63182506      1.34743674     -0.25456401
H       0.82486242     -1.47461215      0.04859936
H      -0.66922670     -0.04293585      2.02771677
H      -1.20191666     -1.85362505      0.12275507
H      -0.73287998     -0.31693100     -2.02764407
