18
b3lypvtz=-181891.68320478
C      -2.54543682     -0.48357375      0.26209540
C      -1.39971740     -0.63898241     -0.39113334
C      -0.09587646      0.01279040     -0.08856523
C       1.03776569     -1.00370016      0.06409016
N       2.36348149     -0.38933323      0.16444368
C      -0.04950170      1.27440986      0.72098274
C       0.19371918      1.33888067     -0.76468392
H      -3.44234676     -1.00237748     -0.04985563
H      -2.63299982      0.16343788      1.12563377
H      -1.37847540     -1.31772583     -1.24167700
H       0.96325413     -1.72487569     -0.76194679
H       0.85945967     -1.56849063      0.98250746
H       3.00284154     -1.00158507      0.65285116
H       2.75858257     -0.22328195     -0.75224285
H       0.81415656      1.40746706      1.35688245
H      -0.97347081      1.68301329      1.10364445
H      -0.58336184      1.75645973     -1.38973986
H       1.20403920      1.54051232     -1.09207567
