15
b3lypvtz=-214531.95668662
C       1.72089890      0.71799012      0.15473832
C       1.86493716     -0.82189752      0.18414508
O       0.49942732     -1.29645118      0.06235952
C      -0.28151753     -0.18074961     -0.02389235
N       0.27591731      0.95536660      0.01554213
C      -1.75504315     -0.45295738     -0.15960915
N      -2.61456639      0.71368228     -0.25585226
H       2.25290765      1.17256772     -0.68254609
H       2.08697629      1.19015719      1.06784227
H       2.43890731     -1.22404982     -0.64990259
H       2.27483474     -1.20568531      1.11764027
H      -1.89832139     -1.08677928     -1.03891471
H      -2.06212861     -1.06472793      0.69299343
H      -2.32460933      1.28223728     -1.04351609
H      -2.47862027      1.30129687      0.55897222
