17
b3lypvtz=-191949.06318512
C      -1.49066561      0.82102773      0.59710034
C      -1.52848457      0.50081718     -0.87790283
C      -0.42560905     -0.05652472     -0.02037273
C       0.94413395      0.54443489     -0.19379370
C       2.12301112     -0.00880171      0.50813745
N       1.97204516     -0.17665004     -0.94945525
N      -0.40819853     -1.48329657      0.22295100
H      -2.22116115      0.34063180      1.23381498
H      -1.22198340      1.82541825      0.89671333
H      -1.27988515      1.28428430     -1.58052437
H      -2.29394315     -0.18084681     -1.22558033
H       0.92844493      1.61195920     -0.38991279
H       1.97622619     -0.88303884      1.13057701
H       2.92826324      0.64637788      0.81664288
H       1.62273763     -1.11794221     -1.11623233
H      -1.15348082     -1.96316926     -0.26013922
H      -0.47145079     -1.70468109      1.20797657
