16
b3lypvtz=-204448.53164318
C       3.13505845     -0.40194813      0.53118108
C       1.97964009     -0.43862732     -0.11997353
C       1.16835667      0.76837422     -0.49100023
C      -0.25073554      0.74386008      0.06392449
O      -0.94453535     -0.35911676     -0.53334471
C      -2.23044144     -0.57901379     -0.16685347
N      -2.97049303      0.04190854      0.64327285
H       3.58370671      0.53407335      0.84449155
H       3.67924695     -1.30600054      0.77072329
H       1.56448249     -1.39581355     -0.41741418
H       1.65913890      1.67474712     -0.12873834
H       1.10011920      0.85113726     -1.58023689
H      -0.77185583      1.67444909     -0.17956639
H      -0.23989453      0.62416618      1.15112063
H      -2.60666728     -1.44480609     -0.70498596
H      -2.51266847      0.83421537      1.08795081
