12
b3lypvtz=-249540.94612202
O       2.85762057     -0.81502914     -0.18823290
C       1.61892592     -0.46887812      0.19251009
N       0.79967554      0.09134227     -0.59274289
C      -0.50708175      0.35188216     -0.19103824
O      -1.00562539      1.56596277     -0.61557276
C      -1.32368515     -0.46716405      0.48042281
O      -2.62542307     -0.16668576      0.77828105
H       2.95313377     -0.57846626     -1.12302126
H       1.42545882     -0.73010746      1.23129850
H      -0.36192848      1.94518915     -1.22359260
H      -1.02227693     -1.45078063      0.80075883
H      -2.80869385      0.72273508      0.45092937
