20
b3lypvtz=-182677.34736777
C       0.47665538      1.53747041     -0.34342039
C       0.33173780      0.07178074     -0.01338734
C       1.40649815     -0.71491511      0.12008811
N       2.74109488     -0.34938693     -0.08452793
C      -1.05943802     -0.51569099      0.12783729
C      -1.88464828     -0.37709887     -1.16278198
C      -1.82772756      0.06744540      1.32609982
H      -0.42750894      2.09757534     -0.10677040
H       0.68816701      1.70455518     -1.40457614
H       1.29045148      2.00414199      0.22056005
H       1.27819149     -1.76790657      0.34461695
H       2.92392433      0.64256994     -0.06105805
H       3.40416612     -0.85527302      0.48192693
H      -0.93266497     -1.58596489      0.31763645
H      -2.05486102      0.67168076     -1.41665360
H      -2.86349353     -0.84892289     -1.05146633
H      -1.37497771     -0.84613597     -2.00565337
H      -2.79978240     -0.41865158      1.43587983
H      -1.27038256     -0.07292114      2.25331413
H      -2.01241364      1.13713921      1.20525896
