16
b3lypvtz=-202033.19920934
C      -3.01347407     -0.12273144      0.12598465
N      -1.62265246     -0.35820023     -0.19818213
C      -0.66921181      0.59458562     -0.07000976
C       0.67681193      0.37650582     -0.00728921
C       1.68259903      1.48680727      0.03315359
N       1.06375869     -0.95405445      0.00835341
N       2.30584528     -1.16347242      0.03445987
H      -3.30160424      0.87589318     -0.20424600
H      -3.22399715     -0.20030661      1.19923560
H      -3.64124639     -0.84192986     -0.39933513
H      -1.27603018     -1.30500542     -0.14318106
H      -1.04224938      1.61248239     -0.04951020
H       1.18791066      2.45825013      0.04086999
H       2.31841055      1.40769421      0.91760842
H       2.35309868      1.44333263     -0.82844597
H       2.42441687     -2.18288282      0.05514993
