13
b3lypvtz=-242066.17985653
C       0.49042736     -0.04083285     -0.66646888
C       1.65421558     -0.18311060     -0.02910282
O       2.84463730     -0.06727314     -0.68892445
C      -0.80849706     -0.12929059     -0.01757572
C      -1.91863388     -0.22876340     -0.75972447
F      -3.14062531     -0.29165762     -0.16180965
N      -0.85031670     -0.17237159      1.38591111
H       0.50324993      0.14795828     -1.73254082
H       1.70951362     -0.41233780      1.02834066
H       3.56798043     -0.24496681     -0.08286345
H      -1.96096302     -0.30119957     -1.83391114
H      -0.29630487      0.55629675      1.81544317
H      -1.79468339     -0.15046168      1.74322646
