15
b3lypvtz=-214511.60387491
C       1.47185295      1.56593430     -0.16849980
C       1.11719317      0.29020801     -0.00546622
C       2.14297499     -0.79476561      0.21456329
C      -0.30418962     -0.11701836     -0.02958549
O      -0.60557772     -1.44467372     -0.25286702
N      -1.24775213      0.71495180      0.16040396
N      -2.54253546      0.25944322      0.02324647
H       0.72973053      2.33104586     -0.34211659
H       2.50977410      1.86597304     -0.11587724
H       2.17962909     -1.50521999     -0.61963749
H       1.94082994     -1.36628162      1.12439348
H       3.13888325     -0.36502627      0.30090016
H       0.19836937     -1.95027633     -0.39799134
H      -3.15404904      0.82878741      0.58769835
H      -2.65919740     -0.72971673      0.21750347
