12
b3lypvtz=-257141.34305978
N      -2.01907557     -1.12556870      0.24080975
C      -2.06183849      0.14313084      0.29726871
C      -1.12432950      1.11495402     -0.29766808
C       0.20381433      1.00555843     -0.34344675
C       0.99466710     -0.11589643      0.24766984
F       2.20517152      0.35891680      0.66699084
F       1.25423985     -1.07777470     -0.70402008
H      -1.23360315     -1.44785545     -0.32770350
H      -2.90321261      0.58627115      0.83512868
H      -1.57947746      2.01518966     -0.69835375
H       0.80242722      1.77898706     -0.80882698
H       0.51202577     -0.61011469      1.09093931
