15
b3lypvtz=-214508.85791228
C      -0.59692056     -1.15586790     -0.45921553
C      -0.93360016      0.28669277     -0.21970539
C       0.49726696     -0.20719131     -0.00965695
C       1.55210031      0.20007830     -0.96522131
N       2.74620975      0.51040030     -0.68508658
O       0.93153837     -0.28880666      1.30923089
N      -1.61981704      0.62553007      1.00181063
H      -0.91171895     -1.87467130      0.28510916
H      -0.59718105     -1.51418532     -1.47962464
H      -1.12167465      0.89818294     -1.09644580
H       1.23959275      0.22449403     -2.01293832
H       2.88729816      0.43521284      0.32542725
H       0.17871337      0.00866777      1.84907897
H      -2.54776667      0.22367504      1.04338721
H      -1.70404056      1.62778842      1.11385042
