14
b3lypvtz=-229572.75597761
C      -3.25049663     -0.61074010      0.12365196
C      -1.77888962     -0.38075656      0.00399385
N      -1.31587698      0.80759113     -0.00573595
N       0.02011728      1.03240716     -0.18802689
C       1.00107838      0.05025964     -0.29613953
C       2.19083995      0.13219768      0.28878962
F       3.16579723     -0.75927461      0.00580582
H      -3.77364599      0.33804135      0.22831801
H      -3.63998317     -1.12958494     -0.75716017
H      -3.47875029     -1.24077395      0.98772333
H      -1.13642311     -1.25941999     -0.06527911
H       0.28977511      1.94459563      0.13511875
H       0.78439455     -0.78031046     -0.95687072
H       2.50804929      0.89857402      0.98269603
