13
b3lypvtz=-242058.65762436
O      -0.42259556      2.16370685     -0.72494340
C      -0.54923212      1.02217526     -0.40727530
C      -1.67870540      0.18085926      0.19633103
N      -0.68767655     -0.91172327      0.39908175
C       0.36791300     -0.21658188     -0.38586099
C       1.69765927     -0.13272390      0.34323569
F       2.66296200      0.41471034     -0.49216523
H      -2.46826034     -0.02537064     -0.53391745
H      -2.13256249      0.56302817      1.11228014
H      -0.96760405     -1.80574953      0.01993767
H       0.53544379     -0.60595391     -1.39690505
H       1.62338126      0.48923478      1.23665912
H       2.01907719     -1.13551154      0.63354201
