12
b3lypvtz=-202925.5926435
C      -1.26816782      0.29442862      0.49447090
C      -0.49855832     -0.12131783     -0.76054681
C      -0.36207453     -0.89367679      0.52173187
N       0.95084044     -0.63225287      1.09750474
C       1.59144929      0.15189156      0.32625148
C       0.83802219      0.53261191     -0.93091021
O       1.25530603      1.18487135     -1.85451860
H      -2.33616140      0.12690973      0.46870304
H      -0.95285792      1.17919460      1.03158812
H      -1.04687720     -0.45377525     -1.62798519
H      -0.75634880     -1.88659268      0.67631504
H       2.58542804      0.51770765      0.55739560
