15
b3lypvtz=-193585.95198785
C      -3.65386862     -0.39036213     -0.02358429
C      -2.56785171      0.11777082      0.00382982
C      -1.23759949      0.71159985      0.03620779
C      -0.13638171     -0.34445243     -0.02340506
O       1.11039537      0.34394511      0.01416557
C       2.22225666     -0.43970849      0.03178581
C       3.44972651      0.05943258     -0.03196790
H      -4.61904326     -0.83110964     -0.04742187
H      -1.11265255      1.30159628      0.94744151
H      -1.11415694      1.39932323     -0.80387803
H      -0.21996689     -0.92874752     -0.94453249
H      -0.21876503     -1.02712690      0.82763696
H       2.03760765     -1.50719292      0.11173194
H       3.62486775      1.12293723     -0.11202167
H       4.29909027     -0.60488407      0.00173991
