17
b3lypvtz=-191978.60161228
C       0.42333648      1.99887095      0.04256493
C       0.48385764      0.49865151     -0.02416914
C      -0.57788090     -0.32091490     -0.03781707
C      -1.98267216      0.06722798      0.02050004
N      -2.98704262     -0.71860937     -0.01214701
C       1.89500059     -0.04295417     -0.08240117
N       1.98824749     -1.49467530      0.02708795
H       0.86859678      2.35974892      0.97422732
H       1.00827848      2.43861915     -0.77057564
H      -0.58605363      2.39396181     -0.02227575
H      -0.38572862     -1.38624275     -0.11115255
H      -2.21000473      1.12988244      0.10359262
H      -2.67519353     -1.69027038     -0.08982869
H       2.32520927      0.24996300     -1.04681143
H       2.48744521      0.49511802      0.67455783
H       2.91341688     -1.81128181     -0.23182512
H       1.82608537     -1.79463211      0.98108289
