15
b3lypvtz=-191211.77113585
C       3.15768831      0.28424886     -0.00000668
C       2.20665397     -0.65318205      0.00000007
N       0.83241425     -0.48194902      0.00000376
C       0.14825080      0.70076452      0.00000326
C      -1.20023899      0.78341864     -0.00000645
N      -1.95970856     -0.37333090     -0.00001708
C      -3.23107001     -0.30982339     -0.00003280
H       4.19349076     -0.01662862     -0.00000577
H       2.95251308      1.34483071     -0.00001307
H       2.48649990     -1.69910402      0.00000455
H       0.24980880     -1.30454559     -0.00000459
H       0.74614732      1.59940300      0.00001349
H      -1.68211616      1.75834072     -0.00000687
H      -3.81080920     -1.22715285     -0.00001230
H      -3.78087626      0.63733501      0.00000146
