17
b3lypvtz=-171060.5642703
C       2.66320999     -0.68250119     -0.00004801
C       1.55665156     -0.20824759      0.00000694
C       0.28630499      0.44780550      0.00004061
C       0.39722026      1.95738033      0.00004925
C      -0.86287705     -0.26021934      0.00001809
C      -2.23446387      0.35413793     -0.00007249
C      -0.87756512     -1.76361251      0.00002054
H       3.63075833     -1.11813747     -0.00008866
H       0.95451129      2.29535893      0.87635814
H      -0.56850269      2.45427491      0.00059401
H       0.95359374      2.29546472     -0.87680842
H      -2.23647893      1.43981353     -0.00014877
H      -2.79858123      0.01703090      0.87500988
H      -2.79847635      0.01692912     -0.87518651
H      -1.41423547     -2.14002749     -0.87629403
H       0.12172380     -2.19022958      0.00026361
H      -1.41466626     -2.14001572      0.87607382
