16
b3lypvtz=-227755.63527176
C      -2.25488706     -0.38609576     -0.56657346
C      -1.10020592      0.06095696     -0.06422906
N      -0.92200094      1.31625812      0.52738157
C       0.12999914     -0.81616005     -0.00479294
O       0.66763542     -0.88921834      1.32620258
C       1.27051825     -0.33715944     -0.91428412
O       1.85320082      0.87386898     -0.44100616
H      -3.12726801      0.25028011     -0.64236218
H      -2.35576512     -1.40891755     -0.89599702
H      -1.70238809      1.94533910      0.41123939
H      -0.03799264      1.74863378      0.28727968
H      -0.15653362     -1.82186826     -0.32139891
H       0.12070393     -0.33245449      1.89093315
H       2.02728704     -1.12699611     -0.96942728
H       0.89992824     -0.14379972     -1.92037999
H       2.15656756      0.68200567      0.45545676
