15
b3lypvtz=-214530.42406375
C      -1.09592233     -1.59301292      0.68755538
C      -0.46670269     -0.30214279      0.25469033
C      -1.17343510      0.71840428     -0.24837438
N      -0.66852307      1.95414717     -0.68477519
N       0.92346439     -0.20271219      0.52915402
C       1.75239604     -0.11673288     -0.41579334
O       3.07903939     -0.01067014     -0.20530477
H      -0.68927516     -2.44267048      0.13019391
H      -0.89515585     -1.78352988      1.74542773
H      -2.17528470     -1.57457494      0.53807563
H      -2.24220441      0.60255739     -0.37167238
H      -1.31338805      2.71704250     -0.53982702
H       0.23352028      2.18172320     -0.28834366
H       1.51900395     -0.12183424     -1.48013963
H       3.21236732     -0.02609407      0.75483337
