14
b3lypvtz=-203686.98541775
C      -2.31410368     -0.01768565     -0.25261722
C      -1.01413463      0.04634954      0.05287395
C      -0.18991844     -1.17152491      0.39269342
O       1.07417106     -1.17938964     -0.28425846
C       1.74907158      0.00990082     -0.17333678
C       1.11702379      1.16381896      0.04493180
N      -0.27754393      1.21462007      0.16626173
H      -2.82398606     -0.96838490     -0.27712020
H      -2.89784894      0.86840880     -0.46554823
H      -0.70648760     -2.07958119      0.09684365
H      -0.00383873     -1.19799858      1.47310173
H       2.81841989     -0.08016398     -0.28028027
H       1.65073767      2.09467549      0.14971189
H      -0.73587697      2.08181616     -0.05582202
