16
b3lypvtz=-202042.44187169
C       3.26846691      0.09289187     -0.17398646
C       2.09349580     -0.44127846      0.16200511
N       0.86370566      0.20113477      0.10830803
N      -0.25668442     -0.62869820      0.02793235
C      -1.38458601     -0.02140732      0.00138614
C      -2.64077893     -0.82514777     -0.12376102
N      -1.51333745      1.36479956      0.02145915
H       3.35594714      1.09468740     -0.57593391
H       4.17851469     -0.46961034     -0.03635954
H       2.01685532     -1.44568729      0.55707168
H       0.83236793      1.01467780     -0.49802692
H      -2.39201964     -1.88167749     -0.16701316
H      -3.30563801     -0.64779450      0.72637321
H      -3.18713751     -0.55472930     -1.03112545
H      -2.44284601      1.70463552      0.21018390
H      -0.81205248      1.83639475      0.57781689
