11
b3lypvtz=-212949.09306104
C      -1.66360832      0.41789108      0.01010260
C      -0.36378103      0.09150874      0.00213136
C       0.13235553     -1.26809310     -0.11042488
N       1.36632382     -1.59861158     -0.11909630
O       2.32022511     -0.58306709     -0.01290248
N       1.96097537      0.76256487      0.09984201
C       0.71736035      1.05480603      0.10491731
H      -2.43334881     -0.33755367     -0.06941039
H      -1.98440451      1.44703418      0.09628859
H      -0.55707643     -2.10146515     -0.19613634
H       0.50497892      2.11498569      0.19468851
