13
b3lypvtz=-192839.55114283
C      -1.37934657      1.48414434      0.12131468
C      -0.86321555      0.28424469     -0.17403250
C      -1.70845394     -0.91714500     -0.51881496
C       0.54830161      0.09846863     -0.17144094
C       1.74427551     -0.07903927     -0.17528309
C       3.16131937     -0.31803354     -0.18733525
O       3.99882893      0.52396002      0.04834036
H      -2.44955120      1.64319813      0.12417566
H      -0.74620289      2.32527688      0.36457640
H      -1.46009023     -1.29087498     -1.51397911
H      -1.52613019     -1.73161082      0.18469395
H      -2.76769292     -0.66608308     -0.49464660
H       3.44795807     -1.35640599     -0.43416859
