12
b3lypvtz=-226247.59829177
C      -0.75974984     -1.01343484      0.11168404
C       0.67629103     -1.06644767     -0.02336772
C       1.12061436      0.22310213     -0.01551772
N       0.04271130      1.06436469      0.11631302
C      -1.09940750      0.30502550      0.19325773
O      -2.27849227      0.97556814      0.32803163
O       2.34986236      0.80498328     -0.10726703
H      -1.43445990     -1.85201116      0.14234583
H       1.28169525     -1.95234439     -0.11310956
H       0.08299239      2.06740219      0.15074478
H      -2.99196946      0.33240467      0.36978721
H       3.00991228      0.11138747     -0.19496448
