13
b3lypvtz=-211380.04903896
C      -1.36492111     -0.84200831     -0.29474492
C      -2.15810984      0.10444279      0.51105629
N      -2.74580149      0.87646814      1.13083114
N      -0.00680711     -1.03573226      0.17042289
C       0.83768505     -0.07854439      0.03410311
N       0.58775352      1.21934496     -0.33800761
N       2.18346031     -0.33215149      0.26282936
H      -1.41318162     -0.49381641     -1.33708927
H      -1.87926332     -1.80371836     -0.26670388
H       1.31861276      1.74171650     -0.78746802
H      -0.35314996      1.52199497     -0.51077718
H       2.32642786     -1.25818181      0.63624108
H       2.66729496      0.38018568      0.78930701
