15
b3lypvtz=-191200.41219153
C       0.30014101      1.18017277     -0.39565692
C      -0.45942714     -0.11950033     -0.08048539
C      -1.87324884     -0.15666357      0.36378461
N      -1.52125486     -0.52870525     -1.01879020
C       0.58239507     -1.05249804      0.42124637
C       1.75284642     -0.40758377      0.47048422
N       1.65968221      0.94429920      0.13427933
H       0.30925910      1.34386642     -1.47607725
H      -0.15209944      2.05155913      0.08034329
H      -2.43434634      0.76681963      0.45754826
H      -2.16802143     -0.93596606      1.05808796
H      -1.52139327     -1.53854465     -1.12707797
H       0.39730393     -2.06566504      0.74098358
H       2.70862033     -0.80232418      0.78363863
H       2.41954328      1.32073371     -0.41230852
