12
b3lypvtz=-202942.60554858
C      -1.63948850     -1.67610289      0.00001258
C      -0.24783316     -1.16437485     -0.00002443
C       0.14088988      0.12324277     -0.00003722
C      -0.78770772      1.20861574     -0.00002900
N      -1.50712531      2.10991086     -0.00002012
C       1.59564083      0.47539377     -0.00003610
O       2.47967999     -0.34338435      0.00002716
H      -1.80064658     -2.31465877      0.87350660
H      -2.38283113     -0.88166422      0.00002276
H      -1.80068756     -2.31467486     -0.87346213
H       0.55741467     -1.89217900     -0.00003965
H       1.81209959      1.55877180      0.00008357
