16
b3lypvtz=-227742.42496114
C      -1.11028547      0.93324029     -0.57764147
C      -0.12689989      0.10934200      0.28352582
C      -1.06400899     -1.09173414      0.02087315
N      -2.12140606     -0.13690448     -0.39377170
C       1.31183288      0.01970774     -0.16814847
O       1.95036750     -0.92507602      0.66526754
O       1.97189577      1.26933922     -0.13986316
H      -1.41237502      1.91198519     -0.20276022
H      -0.74977120      1.04879667     -1.60652810
H      -0.14940855      0.40960499      1.33295884
H      -1.32579717     -1.71981047      0.87253139
H      -0.68661139     -1.73226470     -0.78520589
H      -2.63765281     -0.39357635     -1.22556769
H       1.36845138     -0.28746193     -1.21801612
H       2.85901348     -1.02375353      0.36066187
H       1.92265557      1.60856551      0.76228675
