17
b3lypvtz=-191945.58110368
C       2.07763874      0.70966903     -0.44265607
C       1.25240063     -0.53762304     -0.62775430
N       1.00555697     -1.36905007      0.55928460
C      -0.13267967     -0.71351146     -0.10932483
C      -0.88147745      0.32053140      0.66066169
C      -2.13397528      0.88067675      0.10058880
N      -2.18098522     -0.01612437      1.26647087
H       3.14192933      0.46917468     -0.48496041
H       1.88246113      1.17469850      0.52175475
H       1.86606633      1.43745246     -1.22894843
H       1.45662348     -1.06714149     -1.55451039
H       1.04225845     -2.35732788      0.33662018
H      -0.77889064     -1.34629350     -0.71529505
H      -0.27203419      0.95071993      1.29515863
H      -2.40928070      1.90832042      0.30163292
H      -2.46923126      0.50349800     -0.85937441
H      -2.46628068     -0.94796935      0.98065143
