14
b3lypvtz=-201276.72659882
C       1.73263554     -0.38095194     -0.05378933
C       0.59406610      0.55452214      0.06344628
N       0.95935073     -0.29238124      1.19787154
C      -0.76195590      0.26195776     -0.57250365
C      -1.80450043      1.05825352      0.11874707
N      -2.63194918      1.65335354      0.65430548
N      -1.03250223     -1.16835741     -0.58085511
H       1.60500715     -1.30860468     -0.59333225
H       2.72809843      0.04550424     -0.08003865
H       0.82306670      1.61245876      0.12349645
H       1.45252641      0.23669379      1.90722833
H      -0.73271983      0.61532438     -1.60732590
H      -0.97477984     -1.52517157      0.36674238
H      -1.95634364     -1.36260129     -0.94399264
