14
b3lypvtz=-226988.13086898
C       0.13412255      1.33592871     -0.14049004
C       1.04813311      0.13844761     -0.00443006
N       2.29869183      0.31010445      0.08646117
C       0.32618765     -1.19399281     -0.05468575
O      -0.90177329     -1.16297713      0.66561923
C      -1.69377381     -0.06047059      0.29601955
O      -1.07594059      1.16121608      0.59469070
H       0.62787708      2.22688474      0.23732017
H      -0.09710490      1.48634546     -1.20621938
H       2.79361873     -0.58264052      0.14677126
H       0.93613100     -1.98256185      0.38388143
H       0.13411964     -1.44973903     -1.10862064
H      -1.92514197     -0.11297538     -0.78175135
H      -2.60514705     -0.11356976      0.88543372
