11
b3lypvtz=-262040.50014099
O       2.27826881     -1.65166641      0.13967190
C       1.39256410     -0.86844449      0.04461965
O       1.41362784      0.39861874      0.52321831
C       0.20951356      1.08279883      0.16273535
C      -0.70415744     -0.02773205     -0.35698493
O      -1.64012534     -0.33986475      0.62498353
O       0.20284507     -1.10960588     -0.58284221
H      -0.21135769      1.55729050      1.04524915
H       0.43639620      1.82787108     -0.59938367
H      -1.17730496      0.19059062     -1.31494168
H      -2.20037015     -1.05985619      0.31367460
