12
b3lypvtz=-200464.6876667
C      -3.04984050     -0.81865513      0.01373486
C      -2.12311993     -0.06288864      0.09608419
C      -0.97953915      0.83958384      0.18912701
C       0.30534057      0.17320697     -0.21335272
N       1.34003150      0.27224782      0.51775888
N       2.42818020     -0.42374004     -0.09029518
N       3.45836813     -0.25555427      0.56466892
H      -3.87467140     -1.48340073     -0.05260674
H      -1.14422300      1.69496957     -0.47739006
H      -0.87242668      1.23629515      1.19954876
H       0.32580452     -0.38710098     -1.14957221
H       4.18599574     -0.78506356      0.06739429
