13
b3lypvtz=-270368.20090285
F       1.87540511     -0.71355475     -0.77502186
C       1.45002326     -0.09196489      0.37156059
F       1.42480515      1.25256299      0.10934497
C       0.07694099     -0.58710910      0.76481294
C      -0.96757210     -0.38104724     -0.30513087
C      -1.83052641      0.79973243     -0.32611143
O      -2.32578273     -0.46310240      0.13551172
H       2.20784180     -0.26363915      1.13819417
H      -0.22606249     -0.07458305      1.67932959
H       0.16131662     -1.65109281      1.00000888
H      -0.77549812     -0.88636583     -1.24628096
H      -2.24658649      1.14496627     -1.26648789
H      -1.71100859      1.55939752      0.43932115
