11
b3lypvtz=-210571.19568379
N       2.35775398     -0.40612244      0.00014479
N       1.57226984      0.54747606      0.00011586
N       0.24461242      0.18556093      0.00007763
C      -0.74222352      1.13328428     -0.00001711
C      -1.92481234      0.45019023     -0.00000286
C      -1.54432068     -0.91835704      0.00008993
N      -0.23376384     -1.07821414     -0.00003714
H       3.28914648      0.02114155      0.00010377
H      -0.49672899      2.17992726     -0.00002129
H      -2.91819265      0.86226300     -0.00006796
H      -2.18407170     -1.78664470      0.00024039
