15
b3lypvtz=-212104.29175889
N      -2.79407998     -0.90481768      0.08930324
C      -2.44824823      0.48335445      0.16942862
C      -1.18162209      0.87180619     -0.01507928
N      -0.15239256      0.00199914     -0.32149192
N       1.13542856      0.43664875     -0.09070399
C       2.04636345     -0.44387237      0.01343665
N       3.39139223     -0.10239218      0.06495062
H      -3.58916391     -1.12897930      0.67219484
H      -3.02662925     -1.18648763     -0.85766369
H      -3.21476396      1.22513790      0.35841455
H      -0.89345330      1.91194329      0.02194500
H      -0.36409756     -0.97527214     -0.13540203
H       1.84737402     -1.51826431     -0.00270291
H       3.54396261      0.88334054      0.22650848
H       3.95064298     -0.68141266      0.67291882
