19
b3lypvtz=-171833.88365277
C       2.91926635     -0.24892480     -0.30156885
C       1.72651297     -0.38321418      0.26521242
C       0.72500587      0.72011105      0.42763085
C      -0.63834539      0.44773407     -0.25638984
C      -1.51632991      1.70772222     -0.20334192
C      -1.35246562     -0.71541711      0.37427388
C      -1.69972632     -1.83950214     -0.23943669
H       3.25889341      0.70337025     -0.69345375
H       3.60228179     -1.08351039     -0.39212935
H       1.42861908     -1.35781715      0.63994251
H       0.54010758      0.89188545      1.49528690
H       1.13994486      1.64936278      0.02931384
H      -0.44439975      0.20414154     -1.30503661
H      -1.01509414      2.55154707     -0.68139022
H      -1.73277874      1.98990834      0.83005664
H      -2.46747499      1.54362433     -0.71070799
H      -1.60396760     -0.59099888      1.42618478
H      -1.47089713     -2.00928460     -1.28521308
H      -2.22571832     -2.63063084      0.27899348
