18
b3lypvtz=-181883.09463948
C      -0.47337416     -1.56663913     -0.70652852
C       0.15122458     -0.28544460     -0.16014326
C      -0.33935048      0.02119136      1.30409956
C      -1.15127456      1.20019906      0.76065800
C      -0.64666125      0.95545480     -0.62908265
N      -0.30094479      2.17154189      0.08839600
C       1.65594722     -0.26591578     -0.40559943
H      -0.29193357     -1.65997860     -1.78029947
H      -0.05067914     -2.44786742     -0.21864274
H      -1.55358390     -1.57926540     -0.54871508
H      -0.94701907     -0.78538338      1.71322402
H       0.42807894      0.28626397      2.03560979
H      -2.12608136      1.52439999      1.09798269
H      -1.14993480      1.05214690     -1.58325311
H       0.65178533      2.17866084      0.44037803
H       1.87972051     -0.36755076     -1.47021393
H       2.11885909      0.65898469     -0.05585483
H       2.14522142     -1.09079846      0.11798492
