13
b3lypvtz=-216132.55677334
C      -2.46401692      0.62146272      0.32543818
C      -1.71288339     -0.18835683     -0.42831087
O      -2.20864073     -1.11051368     -1.31287559
C      -0.28673947     -0.18393992     -0.39656805
C       0.91486355     -0.17524924     -0.36509232
C       2.37043879     -0.18641159     -0.34734738
O       2.84584757      0.78983646      0.57678941
H      -2.00105216      1.32295893      0.99992025
H      -3.54494198      0.59369936      0.27814389
H      -3.17145481     -1.06933371     -1.29267483
H       2.73797931      0.01697770     -1.36114499
H       2.71306880     -1.19172980     -0.07135653
H       3.80753144      0.76069959      0.56837882
