12
b3lypvtz=-200539.79009642
N       1.11595983     -0.09533985      0.06055268
C       0.34753524      0.11948520      1.17860168
C      -0.38849040     -0.87877763      1.80439335
C      -1.07869877     -0.53581055      2.95776931
N      -1.08577388      0.67900059      3.50306048
N      -0.38274326      1.63874403      2.90459351
C       0.29949930      1.38075535      1.80309286
H       0.91514677     -0.90905213     -0.49582087
H       1.39757746      0.71075857     -0.47136453
H      -0.42407800     -1.88854709      1.41512744
H      -1.66754598     -1.27698378      3.48506152
H       0.84601169      2.22046729      1.38523258
