16
b3lypvtz=-202059.81863813
C      -1.98985198      1.14897837      0.32457077
C      -1.46411753     -0.22747752     -0.00328107
N      -2.16323474     -1.29491659     -0.10276290
N      -0.10549413     -0.32712222     -0.20575852
C       0.82605219      0.71468468     -0.31439766
C       2.13536953      0.53029764     -0.10919823
N       2.72099317     -0.69186353      0.24481538
H      -3.03853440      1.08656353      0.60543708
H      -1.90597850      1.81532562     -0.53692254
H      -1.42978250      1.60367269      1.14322794
H      -3.14116471     -1.10432759      0.08770210
H       0.19101556     -1.25594440     -0.47022428
H       0.46065332      1.68047441     -0.62612229
H       2.81975710      1.34464125     -0.29785422
H       2.14174016     -1.26692363      0.84193091
H       3.64634047     -0.60343671      0.63375553
