14
b3lypvtz=-227009.95982142
C      -1.35294335     -0.86540178     -0.18542551
C      -0.27339723      0.10562239      0.25127384
O      -0.74860188      1.04926568      1.17228032
C       0.46980620      0.86921706     -0.86772338
N       1.89835804      0.61843458     -0.64203286
C       1.95473709     -0.21101612      0.30789499
O       0.80392770     -0.66478593      0.87223148
H      -1.74743163     -1.40846684      0.67568415
H      -0.95607398     -1.59262960     -0.89256546
H      -2.16949866     -0.31959795     -0.65804030
H      -1.17945108      0.58649587      1.90030607
H       0.18838232      0.52166796     -1.86313277
H       0.25102228      1.93437290     -0.80199780
H       2.86126417     -0.62327821      0.73134724
