14
b3lypvtz=-203688.09368106
C      -1.02440762     -0.97455371      0.24831539
C      -1.58142521      0.40084011     -0.06625963
C      -0.15180343      0.08881927     -0.35378604
C       0.93430938      0.74979162      0.48575729
C       2.17058319     -0.03153751      0.47806688
N       3.12450436     -0.67339856      0.43398562
O       0.17052150     -0.00708770     -1.71461577
H      -0.87625892     -1.24778276      1.28429733
H      -1.31641720     -1.78734132     -0.40102010
H      -2.22965669      0.49089175     -0.92569804
H      -1.81548312      1.06309587      0.75597468
H       1.14820486      1.74270100      0.08332345
H       0.60208672      0.87347873      1.51776627
H       0.84524218     -0.68791681     -1.82610734
