17
b3lypvtz=-191962.04835162
C       2.50732301     -0.86062810      0.05462625
C       1.27826630     -0.00670774     -0.01220092
N       1.50235519      1.36831923      0.01920510
C       0.04358612     -0.52890668     -0.03121535
N      -1.09697600      0.31901180     -0.10967858
C      -2.31549059     -0.25350913     -0.67816067
C      -2.22712078      0.01817409      0.77709805
H       2.25200436     -1.91854322      0.05960784
H       3.08694890     -0.63604743      0.95344144
H       3.15881644     -0.67366066     -0.80516021
H       2.32070269      1.67658481     -0.48386982
H       0.67577346      1.90119162     -0.21464488
H      -0.10433015     -1.60440912      0.03260693
H      -2.27734201     -1.28994519     -0.99759161
H      -2.88545262      0.40186205     -1.32524325
H      -2.72674014      0.87769413      1.20660206
H      -2.12540717     -0.83366946      1.44051862
