15
b3lypvtz=-216847.87087432333
C       2.88709904      0.57430715      0.57750151
O       2.05165343      0.05970389     -0.26826746
C       0.93622027     -0.70668273      0.29338706
C      -0.29320225     -0.43808437     -0.51727591
C      -1.65186824     -0.72218034      0.09314945
C      -1.21433636      0.69153477     -0.17041825
O      -0.83564322      1.50488662      0.90405079
H       3.62095762      1.08250665     -0.09259820
H       1.23034944     -1.75443548      0.22303551
H       0.83652730     -0.41593555      1.33579397
H      -0.18560738     -0.65473539     -1.57258586
H      -2.41666501     -1.16685285     -0.52815493
H      -1.66615985     -1.03419413      1.12922676
H      -1.67475660      1.21916493     -0.99990956
H      -1.62456821      1.76099683      1.39187777
