12
b3lypvtz=-249560.14357583
N      -2.52229757      0.06275485      1.15457063
C      -1.33734086     -0.18794049      0.79454291
C      -0.67927752      0.23993001     -0.49258497
O       0.64960308      0.74722634     -0.25415445
C       1.64015985     -0.14987779     -0.30044939
O       1.53165144     -1.32915957     -0.51663097
O       2.79458457      0.49237436     -0.06512294
H      -3.00713255      0.64277472      0.46470398
H      -0.71586843     -0.79732401      1.45304419
H      -0.62073205     -0.60514635     -1.18021334
H      -1.22512440      1.05976053     -0.95609816
H       3.49177446     -0.17547260     -0.10140750
