16
b3lypvtz=-181113.87524704
C      -1.67172210      0.51834617     -0.82321674
C      -0.55786720      0.00840331      0.07003722
N      -0.48243080      0.53762765      1.40836366
C      -0.10340839     -1.41282682     -0.07622189
C       0.78296407     -0.28920443     -0.59503047
C       2.03081088      0.02950510      0.03262288
C       3.09270016      0.30877338      0.51926540
H      -1.60439619      1.60237667     -0.94413131
H      -1.64034168      0.06592449     -1.81594914
H      -2.64674444      0.29055773     -0.38397889
H      -0.31515805      1.53735123      1.39835289
H      -1.34882687      0.37335498      1.90783075
H      -0.58157012     -2.04464055     -0.81223205
H       0.23132470     -1.90849884      0.82271169
H       0.78895810     -0.16644412     -1.67163388
H       4.02550792      0.54959403      0.96330987
