13
b3lypvtz=-237091.8007674
N       0.14479971     -1.76220184     -0.00022862
C       0.66923174     -0.53888315     -0.00002393
O       1.99970257     -0.46363535      0.00016346
C      -0.08568670      0.63233109     -0.00009375
N       0.69606133      1.84255911     -0.00011234
C      -1.50470613      0.59199168      0.00005948
O      -2.20567544     -0.42865599      0.00017448
H       0.74076235     -2.56955253      0.00089099
H      -0.87114925     -1.80923274      0.00024104
H       2.17208350      0.50414126      0.00017476
H       0.54834513      2.41659136     -0.82048080
H       0.54819311      2.41670821      0.82014572
H      -1.99480491      1.58677088      0.00017453
