15
b3lypvtz=-191234.15714728
C       2.02087612      1.10490524      0.59928197
C       1.05890534      0.15231373     -0.06446274
N       1.05466735     -0.15922471     -1.29325700
C       0.03390936     -0.48038766      0.85687313
C      -1.12122371     -1.18291357      0.12985361
C      -2.08507446     -0.24376924     -0.43704857
N      -2.85513857      0.50415463     -0.85060677
H       2.79423544      1.43504895     -0.09297905
H       1.48654930      1.98290458      0.97070069
H       2.49896896      0.63683226      1.46339964
H       1.79805574      0.31751103     -1.80283193
H      -0.35346111      0.27384496      1.54549905
H       0.55415504     -1.21468635      1.48040819
H      -0.72342559     -1.79602551     -0.67878850
H      -1.65586121     -1.83532336      0.82255030
