12
b3lypvtz=-207903.28209611
C      -2.22231330     -1.43764474     -0.00000350
C      -1.16437396     -0.86821170     -0.00000083
C       0.07613404     -0.16340811     -0.00000076
C       0.09615422      1.30259657     -0.00000005
C      -0.98639309      2.07820292      0.00000174
C       1.20444466     -0.88946201     -0.00000160
F       2.41480635     -0.31224513     -0.00000043
H      -3.15261874     -1.94868660     -0.00000213
H       1.08145019      1.75044082     -0.00000130
H      -1.98538123      1.66273960      0.00000298
H      -0.89544620      3.15533994      0.00000220
H       1.25215906     -1.96825256     -0.00000031
