11
b3lypvtz=-218034.64504182
F       2.25578578      0.02186865      0.00000102
C       0.90938040      0.02157428     -0.00000022
C       0.22085608      1.21917845     -0.00000031
C      -1.16628321      1.15102641     -0.00000098
C      -1.77836831     -0.09752799     -0.00000140
N      -1.10009177     -1.24608011     -0.00000073
C       0.23006790     -1.18741291     -0.00000062
H       0.75631882      2.15840898      0.00000045
H      -1.76327570      2.05276440     -0.00000089
H      -2.85893814     -0.17916051     -0.00000116
H       0.78222215     -2.12012565      0.00000084
