17
b3lypvtz=-171047.50045804
C      -3.22926673     -0.53577332     -0.31348082
C      -2.14906434     -0.19831336      0.09008197
C      -0.85824991      0.20216567      0.56884482
C      -0.09686926      1.32567218     -0.11717084
C       0.39227882     -0.08410837     -0.24334472
C       1.65955178     -0.53385490      0.44688559
C       2.91823923     -0.24164267     -0.37293726
H      -4.18353031     -0.83467104     -0.66794058
H      -0.73859925      0.14479301      1.64442910
H       0.45302513      2.00199748      0.52419560
H      -0.56981899      1.79092922     -0.96969457
H       0.20372852     -0.55665676     -1.20025421
H       1.59685915     -1.60647072      0.65242140
H       1.73311575     -0.03948395      1.42020676
H       3.81549618     -0.57716268      0.14937180
H       3.02259119      0.82741465     -0.56710952
H       2.88583804     -0.75147544     -1.33795354
