12
b3lypvtz=-202913.80649073
C      -0.79902425      0.86828634      0.59253836
C       0.03164346     -0.13068259     -0.16285109
C       1.22040966     -0.70616167     -0.00971673
C       2.06392873     -0.42151314      1.09959938
N       2.75332464     -0.19556506      1.99662399
C      -1.07741595     -0.19697526     -1.17633712
O      -1.84179440      0.76925223     -0.41316895
H      -0.38180266      1.87657290      0.66218444
H      -1.14175502      0.54979998      1.58080201
H       1.59170438     -1.42087077     -0.73417012
H      -0.82927778      0.16783204     -2.17735875
H      -1.58994080     -1.15997499     -1.25814544
