14
b3lypvtz=-201274.92732208
C       2.37394336     -0.04552125     -0.00007625
C       0.88001692     -0.07707844      0.00004439
N       0.28145040     -1.20546735      0.00004392
N      -1.12631985     -1.16771030      0.00030206
C      -1.83369538      0.02739720     -0.00002006
C      -1.18771145      1.18914252     -0.00004998
N       0.23927669      1.15698116      0.00016517
H       2.74660596      0.48303923      0.88185284
H       2.74648344      0.48313954     -0.88199368
H       2.76144827     -1.05983133     -0.00015162
H      -1.56436901     -2.06453363     -0.00014025
H      -2.91057690     -0.04028505     -0.00019780
H      -1.67130874      2.15000770     -0.00024422
H       0.77625829      2.00110500      0.00036548
