14
b3lypvtz=-224578.38246626
C       2.62922933     -0.40752298      0.39137385
C       1.21258864      0.05037879      0.32957542
N       0.33956106     -0.56298274     -0.35875856
C      -0.99255017     -0.12350503     -0.31152523
N      -1.64821982     -0.16760894     -1.51228078
N      -1.49945618      0.25622562      0.80840160
O      -2.87500210      0.59641354      0.61083596
H       3.30223146      0.39118246      0.06788373
H       2.89989037     -0.64209026      1.42491010
H       2.78087183     -1.28794407     -0.22927495
H       0.94420237      0.93700895      0.91081043
H      -2.65336652     -0.13844473     -1.45576138
H      -1.25280063     -0.79659080     -2.19029271
H      -3.18727964      0.69568020      1.51410253
