15
b3lypvtz=-214517.84028369
C      -2.77937737     -0.30494196      0.00006324
C      -1.48589520      0.05459278     -0.00010737
O      -1.04177887      1.32960083     -0.00063975
N      -0.45952748     -0.88432272      0.00029490
C       0.91974146     -0.75233797      0.00030248
N       1.57512886      0.32473574     -0.00010695
C       3.02695019      0.21152961     -0.00012670
H      -3.55857794      0.44183253     -0.00024019
H      -3.07388182     -1.34269010      0.00050774
H      -1.80958814      1.91116882     -0.00089208
H      -0.78689950     -1.83399462      0.00067983
H       1.38770644     -1.74690893      0.00076201
H       3.40072970     -0.31567504      0.88472280
H       3.40073460     -0.31128637     -0.88754736
H       3.46432005      1.20868137      0.00224342
