19
b3lypvtz=-195136.10762963
C       2.49818737     -0.48462359     -0.69574716
C       1.51328102      0.03045445      0.03773493
C       1.36980690      1.51242313      0.25191410
C       0.49176922     -0.86470972      0.70321388
C      -0.87282954     -0.91785555      0.01765342
O      -1.55238463      0.31527242      0.17717653
C      -2.82939543      0.32125910     -0.42276871
H       3.23141743      0.14540469     -1.18363924
H       2.60712166     -1.55365332     -0.83257785
H       1.43186586      1.75315398      1.31751799
H       2.14862409      2.06774935     -0.27011188
H       0.39291657      1.86066651     -0.08563551
H       0.33340039     -0.54943362      1.73906816
H       0.87529559     -1.88679487      0.73262771
H      -1.47006760     -1.72674306      0.46250684
H      -0.74971692     -1.14569774     -1.05005597
H      -3.27115393      1.29947024     -0.24071211
H      -3.48029082     -0.44925409      0.01027792
H      -2.76862724      0.15357468     -1.50548105
