13
b3lypvtz=-213755.70795187
N      -0.95888773      1.04254127      2.64138837
C      -1.21117080      0.63973819      1.59353521
C      -1.54707735      0.07715065      0.26678056
N      -0.68080871     -0.97978461     -0.20160900
C       0.65768210     -0.68406061     -0.53775513
C       1.23302413      0.51860653     -0.56271698
O       2.50034712      0.78240127     -1.01436015
H      -1.54485534      0.89065656     -0.46253068
H      -2.56871558     -0.30190938      0.31873388
H      -0.76333500     -1.81881859      0.35524533
H       1.21450863     -1.55629326     -0.86369809
H       0.75011361      1.42507852     -0.22907803
H       2.91937492     -0.03550655     -1.30373530
