15
b3lypvtz=-216922.75570258
C       2.57857036      0.79212635     -1.39743207
C       1.37288967      0.94459749     -0.84137994
C       0.64086649     -0.10554726     -0.16607628
C      -0.56226652      0.04421670      0.40939038
C      -1.27998648     -1.04416413      1.15671350
O      -2.68787700     -1.01497053      0.88528350
O      -1.22008055      1.23760230      0.40033432
H       3.07918289      1.61208578     -1.89323881
H       3.10096138     -0.15707088     -1.37194340
H       0.88747698      1.91286721     -0.88787350
H       1.09814077     -1.08594921     -0.10552057
H      -0.84083193     -2.01859403      0.93591977
H      -1.20493327     -0.87134670      2.23318107
H      -2.82795654     -1.30671839     -0.02249273
H      -2.13415627      1.06086530      0.66513474
