13
b3lypvtz=-216139.83797285
C      -0.79067899      1.62778250     -0.29344879
C      -0.54862518      0.33763080     -0.16945798
C      -1.26209298     -0.88154832      0.36020146
O      -0.07982658     -1.69141961      0.10597302
C       0.63534203     -0.57012231     -0.46029542
C       1.89777536     -0.21827363      0.30032895
O       2.74220494      0.51880376     -0.13407056
H      -0.04835548      2.30016157     -0.70308111
H      -1.73766363      2.05559755      0.01000993
H      -1.52720075     -0.86734482      1.42056119
H      -2.11933250     -1.22433685     -0.22566023
H       0.87354886     -0.71018350     -1.51877627
H       1.96490490     -0.67674712      1.30771581
