16
b3lypvtz=-181140.43024943
C      -2.59059143      0.23649249     -0.01589165
N      -1.42235927     -0.57175654     -0.34116190
C      -0.20804212     -0.21391949      0.38783146
C       0.93774380     -1.16847334      0.14919166
C       2.04976135     -0.47682212     -0.13156243
C       1.73732111      0.96239875     -0.14656517
C       0.43740800      1.13863572      0.12720850
H      -3.43736153     -0.10215003     -0.61357766
H      -2.84920808      0.08941241      1.03515189
H      -2.46851339      1.31643384     -0.18224008
H      -1.23511382     -0.53447391     -1.33610251
H      -0.45868025     -0.25664160      1.45932237
H       0.82767837     -2.23943520      0.22265873
H       3.03040480     -0.89023731     -0.31903928
H       2.46094721      1.73956421     -0.34934881
H      -0.08526675      2.08076011      0.19324689
