15
b3lypvtz=-191201.04881872
C      -1.66161583     -0.38492200     -0.55852031
C      -1.67081719      0.34864171      0.77758749
C      -0.38561541     -0.01366035      0.12025040
C       0.75140260      0.88191767     -0.39582750
C       1.67787473     -0.25936455      0.06117171
N       2.89037605     -0.60250494     -0.02362280
N       0.61572658     -0.93273288      0.64473483
H      -1.95442147      0.15934103     -1.44685466
H      -1.95493151     -1.42678179     -0.55660875
H      -1.96512374     -0.21372695      1.65387466
H      -1.97122776      1.38807565      0.78846493
H       0.88657899      1.81922424      0.14195039
H       0.75947795      1.06033326     -1.46962150
H       3.43830999      0.10872958     -0.49924763
H       0.54400603     -1.93256966      0.76226876
