16
b3lypvtz=-204446.16097514
C      -2.75168479     -0.38047671      0.00951041
N      -1.66308371      0.54909645     -0.26144684
C      -0.42709291      0.23513540      0.41055188
C       0.77780481      1.15153133      0.06511074
C       1.64039554     -0.10562866     -0.06411537
O       2.82155819     -0.29579871     -0.10830237
C       0.42251907     -1.02938427     -0.00126409
H      -3.63307101     -0.08436421     -0.55921128
H      -3.01159507     -0.33483371      1.06916970
H      -2.52324148     -1.42927569     -0.23260092
H      -1.50913104      0.63083144     -1.25969713
H      -0.61714843      0.22514809      1.48530437
H       0.65493752      1.65291400     -0.89910371
H       1.09573837      1.89032389      0.79943258
H       0.49524746     -1.87038622      0.68802959
H       0.15581049     -1.40721241     -0.99231455
