14
b3lypvtz=-203692.95102482
O      -2.67532641      0.02838628     -0.16038470
C      -1.50699596     -0.07787384     -0.43135205
C      -0.38177017     -0.05911298      0.58574262
C       0.45306171      1.19296577      0.36727850
C       1.60132101      0.85195329     -0.22397881
N       1.72050488     -0.51822754     -0.46197120
C       0.66166178     -1.18023281      0.32826666
H      -1.17028711     -0.16700728     -1.48642860
H      -0.83149519     -0.12566329      1.57649207
H       0.10399087      2.19365471      0.55808186
H       2.38909250      1.51274932     -0.55624590
H       2.64661642     -0.90751016     -0.36578099
H       1.05018145     -1.54295704      1.28514346
H       0.24541422     -2.03011342     -0.21387493
