16
b3lypvtz=-204471.45357279
C      -0.47363348      1.88580757     -0.22711616
C      -0.50374537      0.62080204      0.19565256
C      -1.78306733     -0.12184638      0.48537442
C      -2.08174136     -1.25446807     -0.50612403
N       0.65865838     -0.14941970      0.39801274
C       1.86238901     -0.02606877     -0.24298568
O       2.83508752     -0.69732856      0.01860275
H       0.44665486      2.42854533     -0.38466219
H      -1.39687791      2.40858831     -0.42682267
H      -1.72903406     -0.53400473      1.49983109
H      -2.60354764      0.59515135      0.49105460
H      -3.00750498     -1.76411726     -0.23668934
H      -2.19199668     -0.86295557     -1.51807831
H      -1.28408940     -1.99796162     -0.52143029
H       0.61396942     -0.91132930      1.06009574
H       1.84926103      0.73437037     -1.03803323
