14
b3lypvtz=-226996.81728183
C       2.18929273      0.68638414      0.04331896
C       1.04025591     -0.25237222      0.36080530
O       1.13713942     -1.50780595     -0.31814236
C      -0.33416548      0.35609051      0.07573848
O      -0.49197529      1.50957868     -0.25224853
C      -1.52969922     -0.57330240      0.21530416
N      -2.71267212     -0.19999320     -0.02962506
H       2.10823128      1.60630960      0.62101774
H       2.18199850      0.96377937     -1.01245088
H       3.13630630      0.20126758      0.27597118
H       1.05737293     -0.51403495      1.42424612
H       1.25177635     -1.33713541     -1.25983354
H      -1.34025964     -1.59154600      0.54599913
H      -2.69632667      0.78051625     -0.33532069
