14
b3lypvtz=-180345.06394911
C      -3.99005496     -0.33382785     -0.00004884
C      -2.81081775     -0.08323858     -0.00003188
C      -1.47716491      0.20005746     -0.00002376
C      -0.29770326      0.46261108     -0.00006329
C       1.13118048      0.72513229      0.00001562
C       1.98915646     -0.56704827     -0.00014434
N       3.42870626     -0.35528867      0.00007168
H      -5.02803390     -0.55432103     -0.00001652
H       1.39133184      1.32703645     -0.87689844
H       1.39125463      1.32674596      0.87715228
H       1.72594455     -1.16383292      0.87430774
H       1.72614143     -1.16349279     -0.87488886
H       3.72570847      0.16648873     -0.81580532
H       3.72549564      0.16615713      0.81624093
