18
b3lypvtz=-205203.16357389
C       1.71713187     -0.91914612     -0.79400239
C       1.02013505      0.07509957      0.10244797
C      -0.54089552      0.18246118      0.21251274
C      -0.27147361      1.69007903      0.02266398
O       1.08969747      1.43691977     -0.39045619
C      -1.30884482     -0.43836912     -0.94496976
N      -1.19507705     -0.16695802      1.46022789
H       1.60336342     -1.93278661     -0.40219273
H       2.78493620     -0.69675349     -0.83630824
H       1.32534226     -0.88947583     -1.80988952
H       1.45248378      0.02577877      1.11257651
H      -0.31436828      2.25654704      0.95933533
H      -0.84553714      2.21262685     -0.74473202
H      -2.35295955     -0.12735932     -0.89818325
H      -1.27756150     -1.52992904     -0.90121707
H      -0.89789282     -0.12833508     -1.90469043
H      -1.34646682     -1.16650620      1.53068879
H      -0.64201294      0.11610662      2.26088775
