13
b3lypvtz=-242060.9185661
N      -0.21758318      1.65419118      0.18681443
C       0.45182636      0.41192643      0.06403750
C      -0.33674109     -0.80530825      0.18674003
C      -1.65158163     -0.97604593      0.08080440
F      -2.51305126      0.02118979     -0.22945458
C       1.79290757      0.35963020     -0.05804750
O       2.58644177     -0.75659179     -0.10690566
H      -1.10248211      1.67840883     -0.29722897
H       0.35442645      2.43374911     -0.10431894
H       0.19376263     -1.71709247      0.43504785
H      -2.16414392     -1.91592762      0.22394318
H       2.38935462      1.26158073     -0.09484031
H       2.05641377     -1.53292121     -0.31122443
