15
b3lypvtz=-191226.85741742
C      -2.95280384      0.36933593     -0.20426513
C      -1.60733305      0.08593284      0.37625684
N      -0.58042362     -0.07224143     -0.34348080
C       0.68330496     -0.36658106      0.33150482
C       1.24335793     -1.70611898     -0.16587720
C       1.63430662      0.72306287      0.05944658
N       2.39085489      1.56697001     -0.13620364
H      -3.33406592      1.32020203      0.17711203
H      -2.90117242      0.40982979     -1.28976084
H      -3.66725811     -0.40027416      0.09932192
H      -1.55293861      0.02220992      1.47296994
H       0.55810098     -0.41056111      1.42329900
H       0.54861665     -2.50449311      0.09249754
H       1.36232496     -1.68216114     -1.24753764
H       2.20872159     -1.91379441      0.29423458
