15
b3lypvtz=-193613.32663056
O       2.44884713      0.20363592      0.94885576
C       1.24873390      0.19849415      0.30024170
C       0.53242867     -1.09192446     -0.03313162
C      -0.80461601     -0.61210662     -0.58335132
C      -1.71735026      0.18884557      0.30776415
C      -0.76425474      0.90646591     -0.62095127
C       0.55657734      1.28580966     -0.04573445
H       2.80860232     -0.68802175      0.96344777
H       0.42588309     -1.72891840      0.85142540
H       1.08974761     -1.67095469     -0.77880038
H      -1.25546123     -1.16890354     -1.39191486
H      -1.50993108      0.23246063      1.36957525
H      -2.76880379      0.18128111      0.05015322
H      -1.17013436      1.46080986     -1.45684029
H       0.87983141      2.30292665      0.11926093
