16
b3lypvtz=-202031.02911216
N      -3.30695779      0.07829168      0.48278162
C      -2.25877252     -0.47094191     -0.38590872
C      -1.03558559      0.38873761     -0.33141053
C       0.20268951     -0.05125206     -0.08193225
C       1.36068669      0.82687696     -0.01913373
N       2.59713372      0.50639530      0.10219159
N       2.94464804     -0.81900917      0.19097835
H      -3.04077541     -0.01473929      1.45609823
H      -4.17430539     -0.43011573      0.36028018
H      -2.65320770     -0.45904721     -1.40785728
H      -1.98536923     -1.51191163     -0.16468901
H      -1.20539886      1.44842920     -0.50085505
H       0.34644344     -1.10878011      0.11591928
H       1.17236799      1.89544649     -0.06108266
H       2.38488999     -1.46050552     -0.36103208
H       3.92537310     -0.92093361     -0.01843394
