14
b3lypvtz=-203663.04715497
C      -1.39953374     -0.74470137      0.42898295
C      -2.15870284     -0.07821966     -0.69709753
N      -2.80409455     -0.76606255     -1.53739780
C      -0.02682409     -0.26118906      0.53487600
C       1.09598686      0.16330254      0.60254659
C       2.47639332      0.64210211      0.65858523
O       3.03737251      0.91590269     -0.62257683
H      -1.43236617     -1.82436339      0.27298171
H      -1.92446344     -0.53633237      1.36921055
H      -2.10182016      1.01559666     -0.71345422
H      -3.27032142     -0.16911892     -2.22043180
H       2.52419110      1.58317614      1.20929620
H       3.08682388     -0.08436143      1.20940969
H       2.89735870      0.14426863     -1.18111567
