17
b3lypvtz=-194357.48779386
C       2.01814909      1.08259038     -0.06017594
C       0.73780036      1.17855793      0.27951068
C      -0.32287196      0.20616817     -0.07536419
O       0.09960292     -0.99649951     -0.65782161
C       0.60410285     -1.95736479      0.26175061
C      -1.61443955      0.74247780     -0.63914142
C      -1.59415137      0.16603521      0.74963872
H       2.73050301      1.84402935      0.22577670
H       2.38689658      0.24928560     -0.64283912
H       0.39955599      2.03708746      0.85196233
H      -0.16361899     -2.26514677      0.97862003
H       0.90553991     -2.82077606     -0.32835785
H       1.46793401     -1.57962097      0.81427492
H      -2.06238203      0.14599919     -1.42083969
H      -1.71065679      1.81197753     -0.76227609
H      -1.67918858      0.83418443      1.59579387
H      -2.05012747     -0.80378196      0.88948304
