11
b3lypvtz=-259618.10478683
C       2.27470426      0.14720448     -0.09012753
O       2.63843222      1.20480936     -0.54271689
N       0.98695228     -0.25709235      0.11242008
N      -0.07965396      0.55454488     -0.20090687
C      -1.23378866      0.09246954      0.02229382
O      -2.34981951      0.79850728     -0.24568994
O      -1.49630565     -1.12371932      0.53934939
H       2.96857712     -0.65349908      0.22756533
H       0.81469922     -1.17375434      0.50140233
H      -2.07227093      1.65007301     -0.61026319
H      -2.45152636     -1.23954345      0.61191186
