14
b3lypvtz=-203576.89458462
C      -1.69046805      1.07536314      0.28718742
C      -0.83608032     -0.23465013      0.12867249
C       0.29666838      0.72237836      0.01994207
N      -0.63148239      1.72085712     -0.61720591
C       1.32383224     -0.45588004     -0.05841294
C       0.26077123     -1.30837695      0.55041123
O       0.82548942     -1.60612931     -0.73183938
H      -1.70030068      1.49949784      1.29409978
H      -2.69029910      1.06073172     -0.14135249
H      -1.09899626     -0.57755357     -0.87065074
H       0.52366516      1.09220780      1.03346364
H      -0.42302535      2.68451355     -0.36968831
H       2.38955355     -0.42098263      0.12563255
H       0.32037217     -2.06527691      1.31954059
