13
b3lypvtz=-211317.03119924
C      -1.99714831     -0.09409181      0.16652470
N      -0.55378079     -0.18598818      0.32856601
C       0.21644794      0.91689632     -0.09399161
C       1.53416030      0.73346290     -0.06059083
N       1.93248038     -0.53894502      0.40153514
N       1.14966630     -1.60081574     -0.17674334
N      -0.06066239     -1.42211059     -0.21048756
H      -2.29835464      0.10903906     -0.86771835
H      -2.36674268      0.70393902      0.80885674
H      -2.44285122     -1.03327717      0.48329147
H      -0.27976807      1.76825805     -0.53641942
H       2.26663156      1.41160853     -0.47061423
H       2.89992162     -0.76787536      0.22779127
