13
b3lypvtz=-190465.64030816
C       0.72970293      1.92682263     -0.01549763
C       0.01027297      0.80370805      0.00732368
N      -1.40270304      0.78556448      0.01909754
C      -1.71840314     -0.47393334      0.00034212
C      -0.58987407     -1.38922043     -0.01158115
C       0.51601664     -0.59834369      0.00286234
N       1.84338290     -0.93353349     -0.04935811
H       1.81092603      1.91842525     -0.04795942
H       0.23266067      2.88639288     -0.01622686
H      -2.75761471     -0.78288739      0.00166442
H      -0.63692020     -2.46639748     -0.02273616
H       2.50096131     -0.26755010      0.31960315
H       2.08085373     -1.88907538      0.15886307
