17
b3lypvtz=-194365.5859103
C       2.81282271     -0.18929361      0.21404525
C       1.49851581     -0.06550592      0.13355659
C       0.54923201      1.11680062      0.23287236
C      -0.59952178      0.10390493      0.52340950
C       0.34583467     -1.05198911      0.07764455
C      -1.89466141      0.29219305     -0.22811639
O      -2.75045638     -0.80742395      0.07587768
H       3.45808610      0.67488417      0.31581689
H       3.29189952     -1.16037098      0.18496813
H       0.76388044      1.86720174      0.99368798
H       0.41652243      1.62610045     -0.72643766
H      -0.80945733      0.04270100      1.59173222
H       0.12495365     -1.38718882     -0.93949911
H       0.40614403     -1.92845736      0.72158254
H      -2.35946257      1.24284507      0.06557768
H      -1.69008445      0.34057141     -1.30625630
H      -3.56424743     -0.71697267     -0.42743618
