10
b3lypvtz=-251379.01862246
C       2.08914207      0.06856783      0.60122118
O       3.01828349     -0.65804054      0.81912805
C       0.67178180     -0.41662589      0.50708662
N      -0.27422760      0.38104240      0.27579006
C      -1.61020013     -0.06472062      0.18572515
N      -2.57388204      0.71920335     -0.04794433
F       0.53301699     -1.73552847      0.68875338
H       2.17815806      1.15648769      0.44902105
H      -1.80511571     -1.12590780      0.32465017
H      -2.22695692      1.67552205     -0.15291308
