15
b3lypvtz=-216928.69029185
C      -1.68382522     -0.07324885     -1.02217287
C      -0.58716891      0.04437371      0.02829984
O      -1.14909907      0.16017670      1.32808110
C       0.36859546      1.19996123     -0.13905686
C       1.61601418      0.75889403     -0.13553743
C       1.62531530     -0.73329093     -0.00206322
O       0.24904284     -1.11076861     -0.06675028
H      -2.24734452     -0.99521231     -0.86354460
H      -1.25536730     -0.10643419     -2.02291101
H      -2.36777886      0.77208328     -0.95079018
H      -1.75578916     -0.57804646      1.45651378
H       0.03306385      2.22434652     -0.19220250
H       2.51491216      1.35554601     -0.19459964
H       2.07285255     -1.05613654      0.94596141
H       2.16249070     -1.23409159     -0.81307653
