13
b3lypvtz=-213751.75500614
N      -1.97592042      0.40846879      0.94326077
C      -1.35356110     -0.52106351     -0.00381271
C       0.05197789     -0.17353378     -0.41456487
N       0.28388181      0.32330156     -1.60255478
O       1.66004165      0.57732067     -1.65363985
C       2.20215486      0.21614712     -0.48187949
C       1.25292228     -0.26525054      0.35176324
H      -1.98933944      1.34378056      0.55339106
H      -1.44402362      0.45699768      1.80426863
H      -1.36396352     -1.51748671      0.44206812
H      -1.96996243     -0.56472164     -0.90126890
H       3.26647213      0.35358178     -0.38986038
H       1.37951990     -0.63774199      1.35282915
