15
b3lypvtz=-191220.08609446368
C      -2.24509005      0.26730735     -1.25382367
C      -0.99226845     -0.48977046     -0.94379797
C      -0.31172745     -0.41806460      0.19473849
C       0.93915902     -1.19271343      0.48173115
N       2.12929742     -0.37424718      0.71808749
C       2.31793149      0.80119065      0.49892321
N       2.66420787      1.93864749      0.19773169
H      -2.54460626      0.90658187     -0.42308145
H      -2.11259959      0.89560404     -2.13868670
H      -3.07114068     -0.41388827     -1.47558684
H      -0.62471268     -1.14851491     -1.72722929
H      -0.65834162      0.24001706      0.98765449
H       0.81004231     -1.81486626      1.37072158
H       1.16351200     -1.87121891     -0.34429236
H       2.53633666      2.67393557      0.88070315
