14
b3lypvtz=-201258.72178952
N      -2.55138409      0.33438929     -0.31163941
N      -1.74832907     -0.43040115      0.25452221
C      -0.38913155     -0.12126793      0.07275309
C       0.19362118      1.07871510      0.07392119
C       1.68911598      0.92091708      0.07091203
N       1.92359806     -0.52290417     -0.16141925
C       0.64838404     -1.22230845      0.08737112
H      -3.49338366      0.01397931     -0.04630435
H      -0.32722816      2.02081889      0.15943794
H       2.18305936      1.52614427     -0.69381262
H       2.11256985      1.23426211      1.03423521
H       2.18584147     -0.65742741     -1.12784234
H       0.65007418     -1.72687761      1.06084931
H       0.46553141     -1.99023134     -0.66718113
