18
b3lypvtz=-205221.04392924
C      -2.79255778      0.75425731     -0.36523050
C      -2.02187335     -0.56322102     -0.28839213
C      -0.88722664     -0.56856545      0.75378457
C       0.21701597      0.41393225      0.48884894
C       1.42468972      0.08868841      0.02097491
N       2.54108839      0.93878556     -0.06047916
O       1.71368942     -1.18382583     -0.39884246
H      -3.60473160      0.69589526     -1.09207203
H      -3.23269809      1.00994012      0.60218577
H      -2.14381223      1.57990999     -0.66304993
H      -1.59949850     -0.79951333     -1.26861754
H      -2.71746014     -1.37249195     -0.04643353
H      -1.32433928     -0.36339811      1.73817559
H      -0.46312465     -1.57253444      0.80177338
H       0.03584373      1.46248975      0.68942795
H       2.36151496      1.85586787      0.32190006
H       2.90614570      1.01946256     -1.00277882
H       2.65007836     -1.34053496     -0.22450107
