11
b3lypvtz=-212967.92190951
C       2.04543194     -1.62402568     -0.00008294
C       1.38461349     -0.62380942     -0.00005807
C       0.70248581      0.65450710     -0.00002568
O       1.29093098      1.71730348      0.00000697
N      -0.67538107      0.61097889     -0.00003423
N      -1.37806629     -0.54327312     -0.00006934
C      -2.64656092     -0.46774162     -0.00007396
H       2.62240662     -2.51558415     -0.00010537
H      -1.14300917      1.51379706     -0.00001157
H      -3.20409672     -1.39400059     -0.00010178
H      -3.19508568      0.47661205     -0.00005104
