12
b3lypvtz=-226218.73672143
C       0.09274328      0.29111399      0.95608585
C      -0.19126370     -1.02827398      0.22588214
C       1.03926955     -0.26764069     -0.10405571
O       1.17965671      0.29483740     -1.37177621
N      -1.38700907     -0.42842818     -0.36891528
C      -1.13554043      0.81555593      0.23267267
O      -1.69614300      1.87017044      0.15217816
H       0.39560116      0.47955519      1.97394224
H      -0.21539476     -2.02886782      0.62960181
H       1.95601674     -0.67391645      0.31784614
H       1.55609706      1.17719863     -1.28595542
H      -1.59403355     -0.50130445     -1.35750640
