15
b3lypvtz=-214496.65746521
C      -1.23641143      1.66553040      0.02210832
C      -0.54320843      0.50856671     -0.03561783
C       0.92144513      0.56814518     -0.01390161
N       1.61030952     -0.50194272     -0.00244498
O       2.98357366     -0.23447287      0.03416094
N      -1.09152768     -0.74545144     -0.12590979
C      -2.50043562     -0.97960585      0.07239399
H      -0.70840144      2.60555574      0.05359106
H      -2.31462765      1.69842045      0.02758149
H       1.39583976      1.54577939      0.00508439
H       3.37544268     -1.11358339      0.03143273
H      -0.45495960     -1.50196924      0.05655823
H      -2.86005753     -0.59943874      1.03713829
H      -2.69232232     -2.04995026      0.02940490
H      -3.09097905     -0.50231235     -0.71422013
