10
b3lypvtz=-308015.81617626
C       1.82492096     -0.88587360      0.00000343
C       0.90548839      0.30206905      0.00001327
O       1.25197005      1.45023633      0.00000529
C      -0.61569465     -0.03481559     -0.00000011
F      -0.92710379     -0.76969924     -1.08844530
F      -0.92712858     -0.76970519      1.08843329
F      -1.37146218      1.05604483     -0.00000636
H       1.63470507     -1.50684643      0.87735994
H       2.85601601     -0.54395051      0.00000980
H       1.63470872     -1.50681664     -0.87737526
