14
b3lypvtz=-201268.01656024
C       1.81821675      1.34391282     -0.00000385
C       1.55750801     -0.14317596      0.00000152
N       2.46533265     -1.04331534      0.00005418
C       0.17057756     -0.62451267     -0.00008344
C      -0.92449893      0.14483018     -0.00013735
N      -2.18824594     -0.47174991     -0.00018649
N      -3.12874434      0.34887907     -0.00021015
H       1.37643640      1.81826171     -0.87854158
H       1.37633496      1.81828058      0.87847239
H       2.88841924      1.54476732      0.00005560
H       3.39502396     -0.62194713      0.00010388
H       0.05223637     -1.70045757     -0.00009781
H      -0.91308099      1.23087777     -0.00011544
H      -3.99809169     -0.20121087     -0.00027845
