16
b3lypvtz=-181112.33464225
C       2.44070066      0.46013454     -0.22071718
C       1.03528684      0.08401955      0.16722081
C      -0.09025572      0.44195606     -0.73642049
N       0.43832260     -0.99819745     -0.61673316
C      -0.85217314     -1.35014775      0.08934695
C      -1.39575931      0.04672845     -0.15385054
C      -2.58945702      0.61399521     -0.08372268
H       3.15700483     -0.23740458      0.21677434
H       2.56284762      0.43101715     -1.30341328
H       2.68346160      1.46483999      0.13034662
H       0.83672013      0.08554719      1.23646149
H       0.06382665      1.04427894     -1.62315329
H      -1.38522542     -2.12465416     -0.46023392
H      -0.70763991     -1.67217512      1.12324801
H      -2.75904199      1.61808129     -0.45150276
H      -3.43861843      0.09198073      0.33814440
