15
b3lypvtz=-216906.80283043
C       3.09858106      0.57908948      0.48571149
C       2.38358382     -0.52536478     -0.30741444
C       0.93175847     -0.38374382     -0.31413293
C      -0.26316278     -0.26048374     -0.30512810
C      -1.71652007     -0.07611480     -0.32930859
O      -2.27129917     -0.88708723      0.68690256
O      -2.09324697      1.27802128     -0.18369546
H       4.17794446      0.42620656      0.45735072
H       2.77951141      0.57720046      1.52772462
H       2.88041766      1.56141575      0.06714021
H       2.74405118     -0.52922314     -1.33994313
H       2.64103163     -1.50323291      0.10889527
H      -2.11410369     -0.35982500     -1.30856230
H      -3.22944189     -0.79581838      0.62877185
H      -1.64942311      1.62133726      0.60140823
