18
b3lypvtz=-205218.86502182
C       1.11178879      1.15769286     -0.89285974
C       0.15779599      0.38037204      0.01462018
C      -0.18610175      1.17795696      1.28395412
C       0.78543354     -0.93504610      0.44701239
O       1.82033785     -1.38780165      0.02553134
C      -1.14314289      0.05887289     -0.77655071
N      -2.11418532     -0.73328535     -0.01500695
H       1.38727612      0.57433240     -1.77109524
H       2.03332124      1.40748715     -0.36711071
H       0.64630154      2.08756187     -1.22512079
H      -0.62597457      2.13919666      1.01019829
H      -0.90731002      0.64063125      1.89817186
H       0.70683120      1.37693140      1.87932106
H       0.20719428     -1.48691449      1.21642543
H      -0.85940389     -0.40659923     -1.72818621
H      -1.60650879      1.01710536     -1.02071419
H      -3.05472085     -0.55268235     -0.33898087
H      -1.95348449     -1.72607367     -0.12826626
