17
b3lypvtz=-194389.14316188
C       3.41109999      0.15724556      0.00008431
C       1.91506492      0.46933967     -0.00003462
C       1.05529941     -0.79290424     -0.00004706
C      -0.42669963     -0.60885994     -0.00016826
C      -1.10330216      0.54369274     -0.00023227
C      -2.57856316      0.57662087     -0.00015129
O      -3.30056660     -0.39589630      0.00037505
H       3.69464134     -0.42218280      0.88142129
H       3.69476555     -0.42225132     -0.88116770
H       4.00563568      1.07164308      0.00009042
H       1.66938325      1.07690829      0.87503717
H       1.66950877      1.07683896     -0.87518983
H       1.31359962     -1.41642467     -0.86590521
H       1.31346948     -1.41635147      0.86590212
H      -1.01931987     -1.51967434     -0.00018272
H      -0.59923267      1.50263285     -0.00029625
H      -3.01967693      1.59390605      0.00046984
