13
b3lypvtz=-239669.96132989
C      -1.89412453     -0.06163282     -0.60360571
C      -0.75834763     -0.08381405      0.09855885
N      -0.69491447      0.10113302      1.48153554
N       0.47789190     -0.27608729     -0.53173832
C       1.62267441      0.44224055     -0.26017055
N       2.65699011      0.31141541     -0.98704152
F      -3.09111819     -0.04508756      0.05031717
H      -1.97751288     -0.04481652     -1.67751153
H      -0.16542323     -0.61836613      1.95687096
H      -1.60715785      0.22023294      1.89743265
H       0.49151996     -0.79207622     -1.39785785
H       1.52725379      1.08311521      0.61625971
H       3.41226861      0.89542591     -0.64304941
