14
b3lypvtz=-224563.82976854
C      -1.16037967      1.78380454      0.29784154
N      -0.20795887      0.98896609     -0.48443993
C       0.13693997     -0.29344915     -0.05859861
C       1.41394072     -0.69099160      0.13454813
O       2.44272749      0.19042891      0.00913103
N      -0.77553468     -1.34039990      0.11018536
N      -1.97746025     -1.07102652     -0.12042964
H      -1.26449545      2.75690959     -0.18105424
H      -2.12823260      1.29311821      0.30019776
H      -0.83958177      1.94119068      1.33536869
H       0.62815000      1.51759431     -0.68936950
H       1.63639041     -1.72635732      0.34588103
H       3.28040586     -0.26206078      0.13690627
H      -2.49852515     -1.94176006      0.04054412
