14
b3lypvtz=-224548.40534095
C      -1.91198878      0.70300176      0.12167573
N      -1.26409540     -0.57398477     -0.15507759
C       0.11742633     -0.68451255     -0.10578460
C       0.79657225     -1.75349172      0.33478839
N       0.76057291      0.41157665     -0.75374772
N       1.79736472      0.77258788     -0.21273817
O       2.38484171      1.78235832     -0.97411462
H      -2.97282851      0.61479923     -0.10843545
H      -1.80543975      1.03027984      1.16362258
H      -1.48921026      1.46988841     -0.52407003
H      -1.72353568     -1.36232911      0.27311605
H       0.28285796     -2.59433577      0.77883198
H       1.86237201     -1.82112931      0.19441187
H       3.16509048      2.00529112     -0.45111353
