13
b3lypvtz=-216189.39966256
O      -1.61114029      2.12319913      0.27625124
C      -0.88474024      1.16101534      0.15143361
C       0.57750536      1.14090365      0.14824287
C       1.01127403     -0.12260657     -0.01622457
O       2.26927710     -0.58732673     -0.07712143
C      -0.08891496     -1.13372998     -0.14755413
C      -1.36760669     -0.28767674     -0.03669914
H       1.18391786      2.02744008      0.26326128
H       2.89658383      0.13983691      0.01748659
H      -0.00009600     -1.88811396      0.63725539
H      -0.00094042     -1.66132767     -1.09983927
H      -1.99216859     -0.56906439      0.81111474
H      -1.99295099     -0.34274908     -0.92770718
