18
b3lypvtz=-181885.76528843
C       3.12484658      0.73696434      0.40479672
C       2.44848613     -0.28833922     -0.51761386
C       1.04615151     -0.52776317     -0.18962038
C      -0.10887369     -0.71208614      0.08769310
C      -1.51039335     -0.93990294      0.44184731
N      -2.43363204     -0.13418663     -0.35997615
C      -2.39317952      1.28924657     -0.05067998
H       4.16621612      0.88296089      0.11424674
H       3.10199579      0.40066679      1.44131389
H       2.61613771      1.69968911      0.35308692
H       2.99264742     -1.23629315     -0.47324981
H       2.51809764      0.04962092     -1.55564441
H      -1.62551254     -0.76123539      1.52519234
H      -1.75198604     -1.99213131      0.27088371
H      -3.37111881     -0.48931765     -0.22149438
H      -1.41980853      1.69384230     -0.32944130
H      -3.15108819      1.80813331     -0.63760082
H      -2.55976321      1.51988936      1.01389234
