19
b3lypvtz=-192727.05799635
C      -1.74727629     -0.61640186     -0.64430146
C      -0.41191485     -0.07030514     -0.10962147
C      -0.46103115     -0.11767572      1.43292090
C      -0.24403392      1.38259465     -0.59998521
C       0.70064774     -0.96201930     -0.66284665
N       1.96922761     -0.89586277     -0.55324753
N       2.57785675      0.12909626      0.13321944
H      -1.76053786     -0.61687960     -1.73578962
H      -2.58056598     -0.00291667     -0.29777014
H      -1.91920700     -1.64043193     -0.30641710
H       0.41279619      0.33236793      1.90631195
H      -0.53759288     -1.14518569      1.79112249
H      -1.33358701      0.43151355      1.79373495
H       0.71156754      1.81309934     -0.30594921
H      -1.04146461      2.00913474     -0.19367650
H      -0.30161960      1.42900523     -1.68844744
H       0.37145958     -1.79825128     -1.27473491
H       2.07936234      0.48737110      0.93846359
H       3.51591339     -0.14835285      0.37681392
