15
b3lypvtz=-214515.56258746
C       2.97914118     -0.47738514      0.43556443
N       1.75742192     -0.26045745     -0.31963188
C       0.96129379      0.82532823     -0.03280149
C      -0.35846229      0.90696104     -0.22197372
O      -1.04698706     -0.17537692     -0.76987374
C      -2.21951241     -0.55205004     -0.17693611
N      -2.73754639     -0.15762764      0.89904050
H       2.80633128     -0.77097403      1.47847158
H       3.57340626      0.43735239      0.43616667
H       3.56993304     -1.25428496     -0.04793692
H       1.24145761     -1.09680443     -0.54645194
H       1.48214711      1.70429104      0.32576599
H      -0.92411909      1.81450908     -0.07447626
H      -2.70179655     -1.30209393     -0.79638663
H      -2.15180339      0.52509777      1.37976752
