15
b3lypvtz=-214516.92794767
N      -0.30458465     -1.65835263      0.88324745
C      -0.25358472     -0.73666757     -0.26541221
C      -1.34421060      0.34898666     -0.17450419
N      -0.66028449      1.51376616      0.43200036
C       0.70425637      1.36813281      0.09046319
C       0.98888486      0.13222945     -0.32470988
O       2.25412412     -0.38517601     -0.48666645
H       0.47291138     -2.30823641      0.83398960
H      -0.17119618     -1.12955457      1.74009095
H      -0.38866131     -1.34810187     -1.16229974
H      -1.69883557      0.58941238     -1.18230439
H      -2.18923735      0.01928326      0.42855819
H      -1.06201113      2.39982359      0.15822065
H       1.39796131      2.17484863      0.27337769
H       2.25456797     -0.98039389     -1.24385122
