17
b3lypvtz=-194382.66165418
C      -2.34573034      0.02610452     -0.30741412
C      -1.08610218      0.02934856      0.11381828
C      -0.28940580      1.27944427      0.38379700
C       1.08518571      1.19494395     -0.30108558
C       1.75692868     -0.13439741      0.02692211
O       0.93959946     -1.23757429     -0.34046308
C      -0.30933812     -1.24102656      0.34836791
H      -2.89453797      0.94689521     -0.46436039
H      -2.87599638     -0.89798735     -0.50282150
H      -0.13290473      1.37343337      1.46576095
H      -0.83821112      2.16519274      0.06150291
H       0.96134237      1.26954477     -1.38394412
H       1.72501619      2.02205392      0.01651455
H       2.68971977     -0.25453936     -0.52374384
H       1.98866280     -0.18517960      1.10197396
H      -0.85620192     -2.11181946     -0.00910726
H      -0.12572744     -1.36863828      1.42738423
