13
b3lypvtz=-213750.35582316606
C      -2.58678370      0.84189079     -0.20816805
N      -1.52627139      0.08820683     -0.09337485
C      -0.20210423      0.34541066     -0.14866682
C       0.61802305     -0.79731010      0.03374498
O       0.15573670     -1.93641848      0.22666431
C       2.10777977     -0.62432444     -0.00730211
N       2.65095124      0.50443759     -0.19931385
H      -2.47521720      1.89955073     -0.38483409
H      -3.55670360      0.38367514     -0.12255726
H      -1.66080245     -0.91701196      0.07470016
H       0.15958737      1.34388793     -0.31794556
H       2.64792114     -1.56365394      0.14446562
H       3.66788331      0.43165923     -0.19544676
