18
b3lypvtz=-233529.33482432
C      -2.86153324     -0.14915899      0.48699732
C      -1.65118824     -0.69176307     -0.27135993
C      -0.34874123      0.04862206      0.03690405
O      -0.42860674      1.43340530     -0.33166882
C       0.83442068     -0.53059555     -0.73145025
C       2.16704243      0.06355019     -0.32996588
F       2.46084186     -0.27626018      0.99906680
H      -2.70611202     -0.19408820      1.56797058
H      -3.06933282      0.88785420      0.21606908
H      -3.75870673     -0.72619171      0.25982524
H      -1.51096259     -1.74857519     -0.02609436
H      -1.83313826     -0.63623607     -1.34855768
H      -0.13902166     -0.02889845      1.11049568
H      -0.96907718      1.89656620      0.31372131
H       0.68198473     -0.34401944     -1.79919777
H       0.86844426     -1.61323732     -0.59006230
H       2.97784053     -0.32616716     -0.94807445
H       2.14901624      1.15147436     -0.39207663
