12
b3lypvtz=-221415.78585987
N       2.59151026     -0.46163774      0.48497107
N       1.67066112     -0.69210740     -0.30639689
C       0.56284526      0.24604252     -0.19834133
N       0.70896713      1.50796365     -0.16029994
N      -0.64159101     -0.42683752     -0.28539279
C      -1.66892472      0.16582052      0.20601302
N      -2.90704422     -0.34529788      0.09078859
H       3.33261788     -1.15039719      0.28832343
H       1.69484144      1.74568465     -0.06686218
H      -1.60304604      1.11577120      0.73859278
H      -3.68869256      0.08205897      0.54999130
H      -3.03729955     -1.22073477     -0.38796306
