11
b3lypvtz=-241307.24605345
C       0.83972344      1.55817994     -0.09797782
C       0.54275004      0.25629478     -0.14079153
C       1.62105108     -0.77782121     -0.04165680
O       2.76492504     -0.53722969      0.25103296
N      -0.73111554     -0.27851854     -0.39612561
C      -1.70803036      0.07265879      0.29190241
F      -2.92747280     -0.38988849      0.01718311
H       0.09096484      2.32404686     -0.24332016
H       1.86852192      1.85655668      0.04403699
H       1.27954237     -1.80667911     -0.26144970
H      -1.71798801      0.74269298      1.15079016
