16
b3lypvtz=-204455.84222895
C       2.10341856      0.01867172      0.32402685
C       0.61611598     -0.09650507      0.27365922
C      -0.25082263     -0.17257937      1.29162574
N      -1.59667653     -0.13654374      0.89929511
C      -1.59654917     -0.38585302     -0.55351291
C      -0.18324113      0.03747601     -1.00527811
O      -0.13214300      1.37136551     -1.53869199
H       2.58632783     -0.79883375     -0.22034032
H       2.44671045      0.94791184     -0.13907612
H       2.47175922     -0.00211044      1.35052298
H      -0.01593756     -0.20099794      2.34708016
H      -2.22462701     -0.71559293      1.43653371
H      -2.36624216      0.18822689     -1.06814949
H      -1.74543839     -1.45023642     -0.76535418
H       0.17928036     -0.58569647     -1.82297638
H      -0.29193481      1.98129718     -0.80936430
