13
b3lypvtz=-192837.47111207806
C      -1.69626512     -1.00427332     -0.26781004
C      -0.79248240     -0.03944822     -0.15492197
C      -0.54204944      1.28325237     -0.73006836
C       0.56857444      1.47735598      0.00268565
C       0.49158958      0.11695311      0.70009108
C       1.58209767     -0.85417240      0.32723954
O       2.19907451     -1.52683630      1.11273737
H      -2.54648313     -0.90306010     -0.93019100
H      -1.61694713     -1.91829640      0.30549001
H      -1.06476765      1.87681514     -1.46724113
H       1.28541230      2.28120777      0.08394090
H       0.34698360      0.12345531      1.78079323
H       1.78526278     -0.91295296     -0.76274529
