14
b3lypvtz=-201305.22206131
C      -2.39207634     -1.04539268     -0.02378755
C      -1.37895000      0.07463642     -0.02056519
N      -1.61857686      1.32627198     -0.09287564
N      -0.07081140     -0.35595402      0.03892685
C       0.99072380      0.62110508      0.19966701
C       2.29911875     -0.00456047      0.01882244
N       3.32850499     -0.50191947     -0.10471701
H      -3.39911770     -0.64852736     -0.12648806
H      -2.19999973     -1.73617277     -0.84653953
H      -2.34094235     -1.61584589      0.90662522
H      -2.61297140      1.50214944     -0.18900406
H       0.10529110     -1.28334517      0.38602350
H       0.85323065      1.40851852     -0.54225412
H       0.96416149      1.11484539      1.17793315
