13
b3lypvtz=-213768.34488826
C       1.88362919      1.32520597      0.18309913
O       0.67276002      0.76395151     -0.33956033
C       0.37754989     -0.52258998     -0.08678640
N       1.44445099     -1.38036614      0.07814381
C      -0.91837535     -0.90533395      0.01610577
C      -1.98951184      0.01195674      0.04515225
N      -2.89410578      0.73081649      0.07328591
H       2.76105336      0.98170156     -0.36819301
H       1.99915222      1.08934387      1.24070736
H       1.78175667      2.39828496      0.05013156
H       2.21617273     -1.25499072     -0.56008796
H       1.19535608     -2.34823587      0.20429024
H      -1.15697819     -1.95715944      0.07864367
