11
b3lypvtz=-236277.80978508
C       0.63386062     -0.52570755      0.41393366
C      -0.39716480      0.21636236     -0.12869894
C      -1.75030577      0.09435082      0.42263809
O      -2.03305385     -0.63734634      1.35281565
N      -0.04299634      1.04427587     -1.19092953
O      -0.93096985      1.71960722     -1.70001519
N       1.89235941     -0.49712896     -0.00159126
H       0.39878525     -1.18268684      1.24321785
H      -2.50923952      0.72029917     -0.06946583
H       2.60224786     -1.05907629      0.43086826
H       2.13647698      0.10705054     -0.77277275
