18
b3lypvtz=-181897.27661715
C       3.09935171      0.00012973      0.32771311
N       1.89600497      0.00017023     -0.47951934
C       0.77772600     -0.00006612      0.10739747
C      -0.52039437      0.00000161     -0.62733952
C      -1.53029849      1.08685292     -0.13121209
C      -2.31334392     -0.00019422      0.64685097
C      -1.53028107     -1.08700454     -0.13152550
H       2.90564422     -0.00010667      1.40948564
H       3.70041400      0.87689222      0.07719898
H       3.70060633     -0.87639944      0.07684427
H       0.71292121     -0.00027058      1.20893560
H      -0.31074489      0.00016239     -1.69484600
H      -1.11315227      1.90994104      0.44900724
H      -2.10025364      1.50637966     -0.95930072
H      -3.39708608     -0.00018659      0.53731490
H      -2.08023704     -0.00034696      1.71171007
H      -1.11312492     -1.91025544      0.44845568
H      -2.10023575     -1.50630125     -0.95973076
