12
b3lypvtz=-226211.39050566
C      -2.47707595     -0.31066441     -0.00000085
O      -1.47477910      0.69884498     -0.00002753
C      -0.20250545      0.25153673     -0.00003097
C       0.32573450     -1.00189680     -0.00000790
O       1.67639658     -0.91702133      0.00003416
N       2.04924096      0.41993957     -0.00006677
C       0.93780455      1.10225815     -0.00003748
H      -2.39818065     -0.93796381      0.89269469
H      -2.39818866     -0.93800877     -0.89266548
H      -3.43403045      0.20341967     -0.00000893
H      -0.09107231     -1.99232140     -0.00000159
H       0.96345298      2.18019945      0.00004065
