19
b3lypvtz=-192729.13292546
C      -2.21870538      1.24768370      0.00791889
N      -0.99391184      0.98971409     -0.14227273
C      -0.50797666     -0.38097331     -0.29436091
C      -1.52925582     -1.50795989     -0.15776114
C       0.66016223     -0.55935114      0.70964749
N       1.76401791      0.37590655      0.58844556
C       2.62486595      0.17365103     -0.56866239
H      -2.52332202      2.28562785      0.12999760
H      -3.01757730      0.50111570      0.02307982
H      -0.08115289     -0.41847893     -1.30207927
H      -2.33457909     -1.42592213     -0.88943289
H      -1.03914035     -2.46891843     -0.31911386
H      -1.97716273     -1.52679141      0.83869059
H       1.05436482     -1.57404319      0.60880648
H       0.24550591     -0.47867601      1.71927114
H       1.39096846      1.31724606      0.58280574
H       3.11044484     -0.80235630     -0.49520764
H       3.41026977      0.93020679     -0.56776700
H       2.11857020      0.22174196     -1.54449447
