16
b3lypvtz=-181132.29703011
C      -2.14004680     -0.66094447     -0.10291132
C      -0.87635844     -0.75620117      0.75894342
C       0.31261780     -0.00910641      0.19232091
C       1.44459526     -0.64978411     -0.17552558
N       2.60472172     -0.05967176     -0.61994078
C       0.22930047      1.40202409      0.05992479
C       0.16803475      2.60116909     -0.05717897
H      -1.97034117     -1.08575151     -1.09379932
H      -2.96846511     -1.19961178      0.36101915
H      -2.44633905      0.37752950     -0.23358617
H      -1.10072802     -0.37387914      1.75957170
H      -0.59641268     -1.80461742      0.88589331
H       1.49897865     -1.72716605     -0.07519523
H       3.20400216     -0.61682320     -1.20422251
H       2.53416100      0.90670363     -0.90091760
H       0.10227948      3.65613070     -0.14838156
