18
b3lypvtz=-181919.23866435
C       2.12898581     -0.00517055     -0.59399667
C       1.03914622      0.09544577      0.48636901
C       0.15629167      1.30000896      0.23163190
N      -1.07770428      1.32780276     -0.04822255
C      -1.81245560      0.06986157     -0.18161252
C      -0.94994968     -1.17415499     -0.38829101
C       0.19939723     -1.18427526      0.61979126
H       2.85137661     -0.78201736     -0.33776101
H       2.67185327      0.93622499     -0.69830041
H       1.70036749     -0.24786604     -1.56772842
H       1.54877407      0.28775004      1.43709911
H       0.66065175      2.26745062      0.30377989
H      -2.42858331     -0.03604680      0.71832290
H      -2.51550350      0.19598094     -1.00775527
H      -0.55216524     -1.17348460     -1.40717777
H      -1.56206094     -2.07349273     -0.29222067
H       0.83113997     -2.06582327      0.49130267
H      -0.21587554     -1.24022906      1.63013856
