15
b3lypvtz=-193581.41434761
C       3.00414106      0.78708512      0.09865580
C       2.08522541      0.03254147     -0.06231780
C       0.95180470     -0.86696850     -0.26618057
C      -0.34117432     -0.13381030     -0.57771375
C      -1.67794744     -0.78428332     -0.29630002
C      -1.22002562      0.37495233      0.52745373
O      -1.92888960      1.57260089      0.35902930
H       3.82190377      1.44828109      0.24129337
H       0.81739843     -1.48217792      0.62877081
H       1.18760058     -1.56318362     -1.07713690
H      -0.30669539      0.49588949     -1.45781458
H      -2.47929173     -0.59156520     -0.99543181
H      -1.69380246     -1.76556938      0.15933732
H      -0.90581175      0.17076795      1.54765725
H      -1.31443563      2.30543989      0.47233812
