14
b3lypvtz=-203706.38464724
C      -2.41614542     -0.38580779      0.10147290
N      -1.04073807     -0.04221247     -0.16965857
C      -0.51594532      1.20460070     -0.04279944
C       0.84193661      1.23372408      0.04146609
C       1.32074844     -0.13517208      0.01815454
O       2.45142397     -0.57929094      0.04207908
C       0.04332327     -1.00849031     -0.05894648
H      -2.57119987     -0.69593372      1.14222462
H      -3.05088989      0.47723864     -0.09802483
H      -2.73723724     -1.20100903     -0.54858514
H      -1.18960843      2.05119041     -0.03251677
H       1.46222285      2.11188819      0.08697591
H       0.08312872     -1.68212818     -0.91645752
H      -0.05089163     -1.60895651      0.85057460
