14
b3lypvtz=-224556.22099655
C      -0.42161970     -0.75599343     -0.56303646
C      -1.82436135     -0.54835827     -0.00800964
O      -2.04445176      0.85204285      0.09986348
C       0.63991925     -0.23288954      0.34643925
N       1.62537749      0.44311291     -0.08853156
N       2.51547032      0.79516392      0.98761306
N       3.47979099      1.45875472      0.62334545
H      -0.32352520     -0.29177300     -1.54394055
H      -0.26306137     -1.83383484     -0.68673394
H      -2.55104420     -1.01516296     -0.68179734
H      -1.91321330     -1.03725939      0.97043434
H      -2.91493281      1.00639984      0.47744753
H       0.56650918     -0.45799020      1.41335401
H       3.42914250      1.61778739     -0.40311676
