20
b3lypvtz=-182658.83529863
C      -1.07411429      1.45850466      0.35092926
C      -1.08811091      0.14979448     -0.44702575
C      -2.17982012     -0.79177705      0.07732115
C       0.26463862     -0.57826877     -0.50217246
C       1.50380098      0.24606748     -0.94118188
C       1.98762910      0.15409023      0.52372974
N       0.94908730     -0.87096666      0.78911133
H      -0.83609664      1.28244961      1.40261828
H      -2.05572863      1.93417347      0.31811804
H      -0.35099834      2.17401529     -0.04163489
H      -1.33213505      0.39505506     -1.48799108
H      -1.98626590     -1.08671774      1.11216407
H      -3.15931690     -0.31068556      0.05429514
H      -2.23765991     -1.70331154     -0.52018754
H       0.11576266     -1.49151888     -1.08673277
H       1.31078582      1.24467022     -1.32898004
H       2.14288470     -0.28508193     -1.64378304
H       3.00679360     -0.20515061      0.67910441
H       1.86179779      1.08846281      1.07888275
H       0.39418711     -0.72685660      1.62334428
