10
b3lypvtz=-248784.69709312
C      -1.23907237     -0.95429633     -0.18134686
N      -0.06506290     -1.42343997      0.07109912
C       0.73355946     -0.31864719      0.27283069
C      -0.01867432      0.79798863      0.12835972
O      -1.29686288      0.40650850     -0.16546813
O       0.25655164      2.11066565      0.21748521
O       2.05274562     -0.40740524      0.56559625
H      -2.15054250     -1.48207350     -0.39624718
H      -0.54642065      2.61597193      0.04886662
H       2.27377892     -1.34527246      0.59479540
