13
b3lypvtz=-234686.24641209
N       1.98764458     -0.20339617     -1.19531719
N       0.64381006     -0.50112039     -0.97157494
C       0.07180240      0.21345219     -0.07457103
N       0.68236452      1.17859926      0.69629963
C      -1.38692625     -0.01034259      0.22225501
N      -1.95513611     -1.04048297     -0.43884168
O      -1.97170821      0.71213169      1.01685693
H       2.50509968     -0.10670221     -0.32223255
H       2.38915600     -0.95236625     -1.74093450
H       0.01219322      1.71635785      1.22980014
H       1.37561744      1.73334260      0.21422872
H      -2.94282473     -1.19455689     -0.34446420
H      -1.41099259     -1.54491612     -1.11800435
