18
b3lypvtz=-181890.02617816
C      -0.83429609      0.26787857      1.24068162
C      -0.90060244     -0.86203152      0.18635769
C      -1.35004122      0.26829669     -0.75835206
N      -0.63615499      1.26031056      0.12066725
C       0.78785562      1.27071580     -0.26997092
C       1.49670413     -0.10214089     -0.11060158
C       0.51615120     -1.29644046     -0.21222490
H      -0.05095522      0.24504917      1.99883433
H      -1.79300551      0.45584600      1.72490847
H      -1.56656783     -1.71038211      0.35273670
H      -1.00931132      0.23919932     -1.79553615
H      -2.42414094      0.46006543     -0.73592683
H       0.82912196      1.61672782     -1.30482645
H       1.30487202      2.02139391      0.33207344
H       1.97588157     -0.13229660      0.86892315
H       2.30381921     -0.19758428     -0.83844742
H       0.86367555     -2.10860198      0.43076253
H       0.48719430     -1.69580545     -1.22985886
