14
b3lypvtz=-203716.69206138
N       2.29915369      0.13424619     -0.14526964
C       0.94300861     -0.05118434     -0.03580093
C       0.19569712     -1.14664855      0.19537176
C      -1.28436310     -0.86632304      0.15891936
C      -1.38150939      0.63658157     -0.16212684
C       0.05685262      1.12124257     -0.23763477
O       0.44571726      2.25682401     -0.41296331
H       2.57804300      1.10284136     -0.08563021
H       2.90530733     -0.50661773      0.33748211
H       0.58683560     -2.13722860      0.38735156
H      -1.76125035     -1.10687260      1.11359870
H      -1.78879113     -1.47904589     -0.59370624
H      -1.91957163      1.20725627      0.59563365
H      -1.87502963      0.83482878     -1.11512521
