11
b3lypvtz=-236311.65603968
C      -0.42409308      1.24523388      0.35912690
C      -1.01019777      0.05421059      0.24458739
N      -0.06279257     -0.84221746     -0.26156142
C       1.15759034     -0.18765791     -0.35608252
N       2.25863049     -0.70786537     -0.68812503
O       0.91697449      1.12729738     -0.01455022
O      -2.26623057     -0.33538265      0.55774960
H      -0.78114498      2.21236204      0.65284230
H      -0.09611738     -1.83800375     -0.12406078
H       3.00915767     -0.02577868     -0.66857411
H      -2.70177665     -0.70219805     -0.22224857
