19
b3lypvtz=-192743.01073045
C       2.82216127     -0.73284966      0.10284686
C       1.70648240      0.21498602     -0.31754438
N       0.43264881     -0.22548388      0.23811243
C      -0.73707521      0.50447957      0.05478625
C      -0.63427899      2.00124647      0.07024632
C      -1.92739912     -0.11206485     -0.05460219
N      -2.00153279     -1.54603890     -0.05409680
H       2.89556391     -0.78260809      1.18987660
H       2.64028627     -1.74352351     -0.26959174
H       3.78134690     -0.40066905     -0.29632857
H       1.92623399      1.21741200      0.05226292
H       1.67867084      0.28225533     -1.41579604
H       0.24710759     -1.21074468      0.08620457
H      -1.62593626      2.44659397      0.01777429
H      -0.14624519      2.35324086      0.98288576
H      -0.05151266      2.37673199     -0.77420767
H      -2.83566799      0.47886115     -0.10793396
H      -2.32541445     -1.91034265      0.83594384
H      -2.64010230     -1.88770609     -0.76154451
