17
b3lypvtz=-191966.09846719
C      -2.10876376     -0.75264753     -0.13835601
C      -1.03296965      0.27105473      0.05935313
C       0.25600491     -0.04533857      0.17378818
C       1.54639704      0.73343219      0.34613289
C       2.25647181     -0.61644963      0.05755960
N       0.94115382     -1.30702779      0.13952325
N      -1.48010462      1.62011090      0.01260196
H      -1.72278749     -1.76324629     -0.01437675
H      -2.91313143     -0.61776962      0.59317174
H      -2.56306670     -0.66874295     -1.12991093
H       1.73815973      1.52613527     -0.37759592
H       1.71567839      1.12524699      1.35090201
H       2.71755177     -0.65170219     -0.93190812
H       2.97637365     -0.96077780      0.80042892
H       0.71514592     -1.94431578     -0.61362349
H      -0.75729873      2.27808178      0.27175490
H      -2.28481467      1.77395628      0.60935373
