13
b3lypvtz=-234656.87559898
C       1.84815907     -0.39372257     -0.42218279
N       0.62473039     -0.39212382     -0.80089100
O      -0.19210232      0.06888560      0.27094407
C      -1.51837746      0.20147304     -0.10824424
N      -2.02613211      0.03216679     -1.24819771
N      -2.23237842      0.62050590      0.99737314
N       2.35910681      0.02040486      0.76658920
H       2.55562962     -0.74014388     -1.16513566
H      -1.30774646     -0.20506886     -1.92436891
H      -1.89900436      0.27720368      1.88373239
H      -3.22732533      0.53434243      0.86804724
H       3.29617023     -0.23967530      1.01189566
H       1.71927034      0.21575212      1.51626963
