14
b3lypvtz=-203685.69677685
C      -1.61143961      1.41642306      0.27023398
C      -1.39760384      0.16763935     -0.53691823
O      -1.55383542     -1.10049143      0.13001685
C      -0.27067924     -0.76098943     -0.38729407
C       0.83544227     -0.59853896      0.64108887
C       1.99671693      0.09171490      0.08680600
N       2.90002803      0.63831309     -0.36970070
H      -2.67922253      1.57836541      0.42599480
H      -1.21594810      2.28156361     -0.26529180
H      -1.13661926      1.36620161      1.24814227
H      -1.86361324      0.18488444     -1.51939906
H       0.02897772     -1.33502834     -1.26064881
H       1.14829248     -1.58598445      0.98962390
H       0.47516581     -0.05404587      1.51311701
