13
b3lypvtz=-213774.49938195
N       2.33348498     -0.45839371     -0.36499040
C       1.02083642     -0.10112910     -0.17353700
C       0.34065590      1.03704967     -0.34142175
C      -1.10701605      0.75018715     -0.06166965
C      -1.07508570     -0.72511536      0.31421635
N      -1.95854854     -1.54272163      0.67221811
O       0.23380074     -1.16899507      0.21384128
H       2.98347145      0.31062120     -0.37581707
H       2.63933144     -1.22680760      0.21283045
H       0.75289747      1.98536631     -0.63973269
H      -1.76701828      0.89788271     -0.92284206
H      -1.52801708      1.33424400      0.76246449
H      -2.86889274     -1.09208858      0.70443996
