16
b3lypvtz=-204453.24122728
C      -0.94980253     -1.23267433      1.04097957
C      -0.05118890     -0.08022274      0.55462379
C      -0.87683764      1.19175066      0.50303423
N      -1.25081306      1.88378992     -0.48749543
C       0.66313535     -0.44870423     -0.75538577
C       1.83991270      0.44252389     -1.07809020
O       2.91994952      0.03137979     -1.41634525
H      -1.71277194     -1.46740561      0.29677792
H      -1.45731150     -0.97053318      1.97032056
H      -0.35932300     -2.13119140      1.22143727
H       0.70852416      0.08232066      1.32869322
H      -1.21623867      1.52815226      1.48701190
H      -0.90332974      1.50882391     -1.37202166
H      -0.04313685     -0.39604572     -1.59333507
H       1.02784087     -1.47518981     -0.71798407
H       1.66139125      1.53322594     -0.98202101
