14
b3lypvtz=-203708.05431189
C      -2.50902604     -0.45459230      0.00000069
C      -1.04862210     -0.16423295      0.00000267
C      -0.01312440     -1.00443015      0.00000474
C       1.23896630     -0.24661648      0.00001168
N       2.41557308     -0.70584210      0.00000493
O       0.91538401      1.09701588      0.00000211
C      -0.50815086      1.23879753     -0.00000002
H      -2.99481589     -0.01831812      0.87729590
H      -2.99480993     -0.01832273     -0.87730007
H      -2.70245772     -1.52595880      0.00000282
H      -0.03340471     -2.08223410     -0.00000103
H       3.10207753      0.04664701      0.00000194
H      -0.81363660      1.80562340      0.88564906
H      -0.81363568      1.80562192     -0.88565041
