10
b3lypvtz=-225466.22076521
C      -0.59951574      1.12224882     -0.31220402
C       0.17708069     -0.03157387      0.01376055
C      -0.77326264     -0.98437059      0.23352839
O      -1.99155758     -0.48184065      0.06433716
N      -1.87578087      0.88233215     -0.28899169
C       1.62846077     -0.16286057      0.09313377
O       2.40115873      0.74297204     -0.12008487
H      -0.24377524      2.10959393     -0.55945122
H      -0.71730272     -2.02532858      0.50749323
H       1.99449459     -1.17117268      0.36847869
