15
b3lypvtz=-216952.83982453
C      -2.38850965     -0.42623461      0.00020303
C      -1.38266552      0.67643359      0.00006839
C      -0.04131092      0.63359168     -0.00002011
C       0.77530330      1.90284943     -0.00013731
C       0.70614850     -0.65336590     -0.00000435
O       0.25345285     -1.77547377     -0.00000751
O       2.05200127     -0.44895961     -0.00000897
H      -3.04001300     -0.32698664      0.87400736
H      -3.04005752     -0.32716087     -0.87358863
H      -1.93801048     -1.41116461      0.00028143
H      -1.81604136      1.67363756      0.00004237
H       0.12232205      2.77466540     -0.00015808
H       1.42535946      1.95884043     -0.87479532
H       1.42544563      1.95894621      0.87444970
H       2.45287539     -1.33039628     -0.00000798
