15
b3lypvtz=-214488.11199727
C       2.42629860      1.02611372     -0.01209858
N       2.01726719     -0.14875249      0.19021874
C       0.95576450     -0.66271503     -0.66070196
C      -0.22118387     -1.18549148      0.18242267
C      -0.91863097     -0.09956467      0.94662472
N      -1.86761716      0.64283480      0.54031339
O      -2.24159303      0.34683501     -0.78819209
H       3.22095358      1.43043403      0.61142286
H       2.02248151      1.68034712     -0.79491323
H       1.36767718     -1.50629995     -1.22056484
H       0.59755688      0.08330579     -1.38132708
H      -0.93306418     -1.67083996     -0.48469664
H       0.16008333     -1.92655940      0.88585323
H      -0.60584954      0.12226410      1.96104670
H      -2.97394303      0.95359344     -0.93285587
