14
b3lypvtz=-224553.05445196
C      -2.12845409     -0.38194888     -0.36134648
C      -0.78759464      0.23540601     -0.10954991
C       0.30080504     -0.51738318      0.06514938
O       1.52333286      0.10848383      0.29442798
N       2.53898012     -0.81298756      0.50290127
N       3.58936815     -0.21968274      0.72197363
N      -0.74559949      1.63208453     -0.14954617
H      -2.07031741     -1.46860179     -0.36041876
H      -2.52892455     -0.05509979     -1.32416776
H      -2.84637481     -0.08261551      0.40897057
H       0.32504675     -1.59300212      0.01943862
H       4.28312318     -0.96004670      0.85861879
H       0.10774580      2.03274463      0.21111779
H      -1.56113693      2.08264924      0.23811752
