15
b3lypvtz=-214537.91219706
N       1.97470878     -1.11770162     -0.12488869
C       0.64020370     -1.26174746      0.03194425
C      -0.27991820     -0.26449731     -0.07342544
C      -1.66986713     -0.62018334      0.11116542
O      -2.61694486      0.14549523      0.05604762
C       0.08120658      1.15876974     -0.40808480
N       1.27528129      1.62103813      0.33715128
H       2.32719398     -0.16781500     -0.05671253
H       2.58497761     -1.87259952      0.13042183
H       0.29448175     -2.27024646      0.23587942
H      -1.83994410     -1.69889810      0.32236813
H       0.32676812      1.23375957     -1.47270166
H      -0.80396229      1.77739521     -0.24131652
H       1.52860036      2.55406303      0.03324472
H       1.05483641      1.68862992      1.32517196
