17
b3lypvtz=-191984.31457776
C       0.87787008      1.73028642     -0.02207269
C       0.44769001      0.32686788      0.36613918
C      -0.85253052     -0.26420624     -0.26761891
N      -0.03823752     -1.42881904     -0.66923838
C       1.16588904     -0.84359344     -0.32744639
N       2.34385587     -1.20807945     -0.60867738
C      -2.03215803     -0.57086414      0.63341883
H       1.88715925      1.94003161      0.33724970
H       0.87828502      1.85926686     -1.10559567
H       0.21253843      2.48010788      0.41040845
H       0.44604041      0.20697711      1.45152346
H      -1.17328789      0.33628179     -1.12569960
H      -0.18536806     -2.04355855     -1.45639925
H       3.02805408     -0.57571949     -0.20179453
H      -2.49386809      0.35258965      0.99006426
H      -2.79704237     -1.13888882      0.09978831
H      -1.71488973     -1.15868004      1.49595062
