13
b3lypvtz=-211337.96747553
C      -0.46790692      1.70765106      0.58452614
N       0.25296717      0.66996824      0.68410926
C       0.06628006     -0.43284576     -0.16407563
N       1.08189753     -1.03917661     -0.68591331
N       2.30129083     -0.50320694     -0.50478379
C      -1.24553872     -1.05976141     -0.40190118
N      -2.38293567     -0.76754208      0.08414019
H      -1.23803386      1.84448667     -0.17800409
H      -0.30456241      2.52725056      1.28028407
H       2.40533456      0.11880386      0.29261185
H       3.03452484     -1.17986270     -0.63786214
H      -1.17451011     -1.91127792     -1.07837915
H      -2.32880730      0.02551302      0.72524778
