13
b3lypvtz=-237035.61865821
C      -2.43308042     -0.33211198     -0.21443967
N      -0.99326649     -0.53606036     -0.15620528
C      -0.26307986      0.44852491      0.05733560
O      -0.66755249      1.72816414      0.24676689
O       1.11282598      0.42863910      0.14367758
N       1.68588521     -0.84799136     -0.03496358
C       2.94444188     -0.77091585      0.06307892
H      -2.91389417     -1.28858779     -0.41104324
H      -2.71627233      0.36450513     -1.00906699
H      -2.82825889      0.06387551      0.72580584
H       0.10718775      2.28632476      0.39070828
H       3.48571707     -1.69971283     -0.05873877
H       3.47934674      0.15534663      0.25708441
