14
b3lypvtz=-203707.01211906
C      -0.08064118      0.71593849      0.02033548
C       0.77953760     -0.51062552     -0.25886081
C       2.26171918     -0.24411327     -0.20040931
O       2.75676171      0.83156287      0.01756558
C      -1.59026968      0.44528477     -0.10374168
C      -2.07020724     -0.56805887      0.83305106
N      -2.42189490     -1.37197509      1.57729063
H       0.14099190      1.09735808      1.01726095
H       0.18012917      1.51287258     -0.67645480
H       0.56909535     -0.93417044     -1.24944337
H       0.56404169     -1.32273342      0.44529258
H       2.90002189     -1.13329384     -0.38111307
H      -2.14969686      1.36558836      0.07505930
H      -1.83958862      0.11636530     -1.11583254
