15
b3lypvtz=-214529.78523401
C       2.61570649      0.74927223      0.00005766
N       2.10679562     -0.61623909     -0.00026162
C       0.87149830     -0.81893765     -0.00010725
O      -0.05018089      0.21833954      0.00002939
C      -1.39637344     -0.06246288      0.00003383
C      -2.17263336      1.22140394     -0.00039815
N      -1.81871382     -1.25037624      0.00036520
H       3.70330773      0.72047413     -0.00321259
H       2.27865697      1.30532848     -0.87902512
H       2.28413341      1.30226657      0.88315913
H       0.42881010     -1.80552240     -0.00006804
H      -1.91308186      1.81361824     -0.87899344
H      -1.91295175      1.81431378      0.87768568
H      -3.24276575      1.02790504     -0.00025808
H      -2.83292476     -1.27642669      0.00037239
