16
b3lypvtz=-227746.91755874
C       2.59236402     -0.64071752      0.26430632
O       1.30760906     -0.32567270     -0.23555283
C       0.89483038      0.99252316      0.06356184
C      -0.52178529      1.21641364     -0.42537588
O      -1.53540860      0.69802198      0.44297644
C      -1.97457522     -0.58516323      0.29061366
N      -1.51575133     -1.54010379     -0.38513569
H       2.62803298     -0.55410555      1.35642970
H       2.80507011     -1.66973733     -0.01741857
H       3.36011082      0.01446026     -0.16507675
H       0.94458893      1.18101111      1.14378397
H       1.55461773      1.71743426     -0.43542220
H      -0.64019507      0.80848794     -1.43240238
H      -0.71391033      2.28848926     -0.46156163
H      -2.87465113     -0.70565179      0.88826813
H      -0.63429604     -1.32092770     -0.84515413
