15
b3lypvtz=-193590.42549034
C      -0.79978953     -0.78893978     -0.81633796
C       0.36512485     -0.88183948      0.21943716
C       1.56394627     -0.08194337     -0.27172785
O       1.04119525      1.24169391     -0.49065108
C      -0.14773162      1.33715748      0.27224170
C      -1.31518923      0.43943679     -0.07298788
C      -0.38878881      0.14136908      1.11448562
H      -0.51871811     -0.66533441     -1.86479059
H      -1.48530880     -1.63008509     -0.72143425
H       0.59836722     -1.86343282      0.62223670
H       1.97034901     -0.44597957     -1.21665526
H       2.36647108     -0.04957634      0.47533652
H      -0.35152209      2.33526272      0.63126021
H      -2.33461476      0.80178102     -0.05987822
H      -0.56379071      0.11042986      2.17946517
