12
b3lypvtz=-200538.50091586
N       2.33233019     -0.86679542     -0.66456489
C       1.61687727     -0.41017529      0.11149341
C       0.69518699      0.20638549      1.05748842
C      -0.63411295      0.67108350      0.38040929
N      -0.49966957      1.54924076     -0.76697454
C      -1.44900256     -0.49905574      0.01757906
N      -2.07313036     -1.42904958     -0.24057190
H       0.48433380     -0.49261086      1.86914995
H       1.18057994      1.08181171      1.49373543
H      -1.19346099      1.21084941      1.14859178
H      -0.03846650      2.41316060     -0.51155921
H       0.02767374      1.11076742     -1.51301280
