10
b3lypvtz=-199756.68776595
C       2.71268117     -0.42682155     -0.03813188
C       1.51946314     -0.31835102     -0.10823485
C       0.11565262     -0.16646058     -0.19077951
N      -0.49988314      1.04217800     -0.22380368
N      -1.83357351      0.89008973     -0.30327190
C      -1.96321261     -0.42656426     -0.31511645
N      -0.80208240     -1.12203697     -0.24833360
H       3.76730618     -0.53271480      0.02369937
H      -0.08678979      1.95944404     -0.19671829
H      -2.92956164     -0.89876259     -0.37402474
