13
b3lypvtz=-213754.32160774
C       2.69563398     -0.03435356     -0.56960368
N       2.11952224      0.85796760      0.12099240
C       0.74956428      1.06617241     -0.01603054
N      -0.09837759      0.11460118     -0.08014853
C      -1.45669380      0.38465301     -0.13694707
C      -2.30993533     -0.65372953     -0.15295429
O      -1.92227889     -1.94242791     -0.10400314
H       2.17760063     -0.61825857     -1.33437408
H       3.75047881     -0.23340872     -0.40133925
H       0.45807695      2.11854887      0.01501425
H      -1.82967474      1.40403193     -0.17159451
H      -3.38193181     -0.53189148     -0.21054471
H      -0.95208472     -1.93190523     -0.05056685
