17
b3lypvtz=-215281.15352559
C       3.14263811     -0.26598995      0.10915774
N       1.87786454      0.23506471     -0.40410353
C       0.72635417     -0.49832997     -0.11578887
C      -0.47000330      0.03469661      0.15256454
O      -0.61275809      1.40485272      0.23901504
C      -1.73113117     -0.73504559      0.38782906
N      -2.82069067     -0.11701987     -0.39332742
H       3.95712061      0.35302262     -0.26695344
H       3.20225559     -0.28935454      1.20637999
H       3.30706588     -1.28214449     -0.25493246
H       1.74245825      1.22147973     -0.23514039
H       0.83124130     -1.57454400     -0.15626236
H      -1.54635106      1.57734355      0.03751085
H      -1.56595161     -1.79602739      0.17442435
H      -2.02400132     -0.65137775      1.44036080
H      -2.74373621     -0.36355267     -1.37340516
H      -3.72782701     -0.42552372     -0.06816472
