16
b3lypvtz=-227745.73644786
C       2.94577678     -0.42343516      0.37228784
O       1.83880693      0.30537713     -0.13501833
C       0.68512292     -0.42475736     -0.28146390
C      -0.50982565      0.16907522     -0.26979934
N      -0.69238229      1.52974045      0.05522792
C      -1.78175351     -0.59164124     -0.47872007
O      -2.61941029     -0.57709013      0.67649470
H       3.17613816     -1.28420949     -0.26424218
H       3.79714590      0.25352278      0.37482725
H       2.75815671     -0.77412320      1.39153816
H       0.79622929     -1.49327266     -0.41955806
H       0.18495209      2.01560227      0.17929122
H      -1.27041426      2.02475342     -0.61273216
H      -1.56463394     -1.63396460     -0.71057317
H      -2.32886284     -0.17180130     -1.33718794
H      -2.49469798      0.28057489      1.09890005
