15
b3lypvtz=-214531.3594482
C       0.48848369      1.67494653      0.25808452
C       0.20351855      0.38402125      0.01218709
N       1.12941807     -0.59993626     -0.24934239
C       2.54128630     -0.37121091     -0.05084614
C      -1.21812119     -0.08299862     -0.01593849
N      -2.26595363      0.56781287     -0.29057633
O      -1.32260679     -1.40290639      0.30048856
H       1.50143070      2.04456341      0.28347774
H      -0.30141143      2.38203008      0.45298063
H       0.79604563     -1.53946897     -0.12317348
H       2.91180323      0.38547355     -0.74667998
H       2.77270551     -0.03210576      0.96710005
H       3.08151406     -1.29597265     -0.24332229
H      -2.05408808      1.52557629     -0.54908028
H      -2.26121463     -1.62406742      0.21883880
