17
b3lypvtz=-220271.26788542
C      -2.32537899     -0.86144489      0.52312037
C      -1.28582813      0.02648864     -0.10758216
C      -0.51822828      1.03953373      0.66303678
N       0.11029870     -0.21287532      0.23718837
C       1.08306550     -0.11904076     -0.84179020
C       2.47366482      0.04853332     -0.25698359
F       3.40423666      0.13075868     -1.29367998
H      -2.06345948     -1.08123159      1.55799736
H      -3.30580837     -0.38043295      0.50836156
H      -2.40707159     -1.80910409     -0.01336323
H      -1.47430635      0.28816050     -1.14672386
H      -0.22744022      1.95122730      0.14974505
H      -0.67735201      1.14688832      1.72927853
H       1.05071012     -1.04332309     -1.42290722
H       0.87771815      0.71444474     -1.53037384
H       2.54892948      0.96467974      0.33260774
H       2.73624999     -0.80326228      0.37135361
