15
b3lypvtz=-191180.67376808
C      -1.57065938      0.88983945     -0.37729396
C      -0.20911800      0.80088624      0.30725556
C       0.61984337     -0.28015027     -0.34788726
C      -0.52716339     -0.64009497      0.60196396
N      -1.84434696     -0.53400217     -0.00422502
C       1.99325950     -0.53106602      0.14606762
N       2.50830040     -0.24448045      1.27234382
H      -1.55491626      1.10829706     -1.44802694
H      -2.26995487      1.56461878      0.11656047
H       0.24097778      1.55234819      0.93927262
H       0.47059976     -0.47399012     -1.40553736
H      -0.33775049     -1.24172426      1.48122419
H      -2.00559654     -1.16321582     -0.78400590
H       2.63467345     -1.06318679     -0.55990666
H       1.85185166      0.25592113      1.87497796
