14
b3lypvtz=-227023.07257942
O      -2.58393092      0.61600665      0.70667963
C      -1.48239358      0.28309386      0.32732677
C      -0.39118627      1.18107188     -0.25265360
C       0.87239507      0.32332596     -0.26568189
O       1.59248980      0.62034798      0.92763868
C       0.33243335     -1.12838278     -0.26918172
N      -0.98602137     -0.99011528      0.31416419
H      -0.26466003      2.08003114      0.34557625
H      -0.69185630      1.48004172     -1.25864788
H       1.49902307      0.50719978     -1.14212869
H       2.40371163      0.10318214      0.94049576
H       0.29028699     -1.52816462     -1.28891936
H       0.97396975     -1.78151596      0.32578595
H      -1.56426118     -1.76612246      0.58964592
