19
b3lypvtz=-192740.71418383
C      -2.29506344     -1.36133314      0.03694747
C      -1.77026438     -0.00739941     -0.44070096
C      -0.61652734      0.58494814      0.39196626
N      -0.40979838      1.97700232      0.00486494
C       0.62275338     -0.28541018      0.32505535
N       1.72493108      0.13462719     -0.12235845
C       2.85661321     -0.77043205     -0.14819158
H      -2.61463842     -1.31454474      1.08049934
H      -1.54793095     -2.15172287     -0.04664423
H      -3.15749164     -1.66786561     -0.55650528
H      -2.57571926      0.72836914     -0.41923513
H      -1.44423851     -0.08178938     -1.48332127
H      -0.94253452      0.58004252      1.44075971
H       0.39217163      2.34414106      0.50655032
H      -0.12951452      2.00611349     -0.97092432
H       0.51396799     -1.31402775      0.70013864
H       2.63138888     -1.77038738      0.24655575
H       3.67574928     -0.33861709      0.43057904
H       3.21404190     -0.86918627     -1.17527558
