14
b3lypvtz=-224574.95349094
C      -2.29307251      0.37964058     -0.63318601
N      -0.88733227      0.72522380     -0.69139719
C      -0.07651091      0.03594562      0.02054288
C       1.34714636      0.40827043     -0.05898475
N       2.20173293     -0.18361820      0.67238454
O       3.49205988      0.30644548      0.47159558
N      -0.38178079     -1.03654443      0.82404137
H      -2.71208241      0.50124818      0.37632572
H      -2.85394508      1.03263341     -1.29926953
H      -2.47739933     -0.65818942     -0.94074304
H       1.60759472      1.20338131     -0.75031091
H       4.02383943     -0.22346689      1.07455950
H       0.33916445     -1.34444003      1.45564067
H      -1.32941446     -1.14652982      1.13792328
