20
b3lypvtz=-182662.07188582
C       2.86009272     -0.14078183      0.25009736
C       1.39086276     -0.25260072      0.65589779
C       0.43430521      0.16109237     -0.46621665
C      -1.03248245      0.15810424     -0.07079774
C      -1.93030788      1.18867537     -0.64621851
N      -1.43142641      1.32738964      0.73666894
C      -1.62970138     -1.18815934      0.28012647
H       3.11589426      0.88504834     -0.02414439
H       3.52183906     -0.44074533      1.06434371
H       3.08406555     -0.77694716     -0.60958088
H       1.18254251     -1.28028558      0.96567207
H       1.19869414      0.38073826      1.52563194
H       0.57199492     -0.49682613     -1.33182627
H       0.69490445      1.17004243     -0.79476841
H      -1.54080259      1.91954028     -1.34493082
H      -2.97312639      0.93310468     -0.79632553
H      -2.16127042      1.06916887      1.39322768
H      -1.51992569     -1.89298650     -0.54750720
H      -2.69453717     -1.09819716      0.50240178
H      -1.14161520     -1.62537471      1.15342418
