14
b3lypvtz=-201281.13052933
C       1.94954227      1.14649529     -0.18731653
C       0.65007122      0.33805763     -0.32523495
C       0.85865537     -1.06597229      0.04901499
N       0.99480148     -2.17207727      0.33893017
C      -0.48858974      0.95963857      0.47267366
N      -1.72340576      0.66509318      0.38446959
N      -2.12101819     -0.31054541     -0.48570628
H       2.28008753      1.17160874      0.85087370
H       1.77779580      2.16961838     -0.52073464
H       2.74556988      0.71326992     -0.79054629
H       0.34227808      0.32753218     -1.37854006
H      -0.23390967      1.76265363      1.15505113
H      -1.50446233     -1.11161020     -0.57897359
H      -3.06436294     -0.59451836     -0.27285890
