14
b3lypvtz=-203690.90962983
C       2.96216583     -0.11298800     -0.21661124
C       1.77248722     -0.66750992     -0.00563071
C       0.53460773      0.15724400      0.10551913
O       0.55072271      1.36714048      0.03491583
C      -0.75782713     -0.62041267      0.33403713
C      -2.00957262      0.20438252      0.19664895
N      -3.06719596     -0.11609450     -0.41982326
H       3.86181114     -0.70741184     -0.29917217
H       3.05157119      0.96174044     -0.31184000
H       1.66761400     -1.74225897      0.08879764
H      -0.70063642     -1.02066535      1.35604795
H      -0.78791142     -1.49177795     -0.32639905
H      -1.98566621      1.17423174      0.69178398
H      -2.97637005     -1.03747797     -0.85579918
