17
b3lypvtz=-194375.73211098
C      -2.68179719     -0.37928097      0.10432957
C      -1.50346493     -0.36542650     -0.51533804
C      -0.31478533      0.39840377     -0.09943451
C      -0.38666003      1.61354703      0.44728230
C       1.01855789     -0.28769353     -0.36062133
C       1.27922930     -1.42666173      0.62010048
O       2.13418219      0.58999049     -0.26680427
H      -3.51072908     -0.95834770     -0.27989385
H      -2.85265673      0.17799116      1.01665248
H      -1.37711770     -0.98791440     -1.39798247
H      -1.33537202      2.11443728      0.58273466
H       0.50482607      2.13327112      0.76944997
H       0.97095860     -0.71170558     -1.37487042
H       1.35314304     -1.03022440      1.63327036
H       0.47151103     -2.15761728      0.59098926
H       2.21536266     -1.92553821      0.37042013
H       1.99556524      1.32115946     -0.87785832
