17
b3lypvtz=-191956.67031305
C      -2.56155098      0.17551494      0.04550682
N      -1.29592835     -0.05753813     -0.61054626
C      -0.47219722     -1.20451554     -0.14428015
C       0.73429075     -0.29509269     -0.18975355
C       2.04850765     -0.47575401     -0.18033863
N       3.01800900      0.53398844     -0.18105578
C      -0.18855018      0.89365318     -0.33986415
H      -3.01287475      1.09394020     -0.33480714
H      -2.47370794      0.26606322      1.14283313
H      -3.24763730     -0.64524583     -0.17210791
H      -0.49254276     -2.07410856     -0.80692450
H      -0.73656929     -1.53298749      0.87341721
H       2.45504998     -1.47798157     -0.10038393
H       2.67856875      1.43923385     -0.47266003
H       3.86566945      0.29366964     -0.67222905
H       0.00742389      1.60244847     -1.15193912
H      -0.32596070      1.46471188      0.59280982
