22
b3lypvtz=-183437.38186012
C       2.92371769     -0.71579565     -0.19297540
C       1.79625351      0.12297828      0.39621351
N       0.52792440     -0.18173684     -0.25635428
C      -0.65656899      0.51644972      0.25307062
C      -0.67583589      2.02291756     -0.04783973
C      -1.92299014     -0.16411716     -0.28548880
C      -2.09995109     -1.60938790      0.17513747
H       3.06684694     -0.49056449     -1.25288510
H       2.69966621     -1.77912162     -0.10306599
H       3.86694257     -0.51215039      0.31645912
H       1.68411373     -0.10980911      1.45891818
H       2.07434837      1.18708045      0.34015433
H       0.60845003     -0.03082085     -1.25696227
H      -0.64080016      0.38523725      1.34093118
H      -1.54260917      2.50516681      0.40905885
H       0.21710945      2.52184995      0.33018424
H      -0.72819766      2.19704127     -1.12636350
H      -1.89654530     -0.12467050     -1.38072140
H      -2.79093007      0.42888572      0.01605708
H      -1.23842066     -2.21262297     -0.10748923
H      -2.20275595     -1.66299509      1.26170121
H      -2.99406681     -2.05609145     -0.26333510
