21
b3lypvtz=-172599.82930319
C       1.57590308      1.53818941     -0.07736522
C       1.19756010      0.06752353     -0.28591173
C       2.27459069     -0.86525206      0.27923658
C      -0.16133594     -0.23930962      0.31447353
C      -1.00912271     -1.36391835     -0.22393427
C      -1.43557560      0.06891694     -0.42235620
C      -2.64380524      0.61715588      0.29856989
H       1.65545166      1.76980073      0.98808477
H       0.82741452      2.20532334     -0.50795359
H       2.53850744      1.76842534     -0.53864548
H       1.12879676     -0.11297488     -1.36487053
H       2.02041483     -1.91262253      0.10909421
H       2.38462605     -0.72050793      1.35725530
H       3.24596454     -0.67327312     -0.18102823
H      -0.20465303     -0.09817649      1.39120875
H      -0.63708498     -1.91132925     -1.08077317
H      -1.57205022     -1.96710576      0.47673857
H      -1.30274056      0.45250670     -1.42877905
H      -2.59091201      1.70402498      0.39740827
H      -3.56782333      0.37571636     -0.23242978
H      -2.72262206      0.19751378      1.30375139
