17
b3lypvtz=-215297.37578756
C       1.34914916      1.26959392     -0.64023104
C       1.14389569     -0.18573318     -0.25919139
O       2.37554965     -0.63487876      0.30769637
C      -0.00888294     -0.39247324      0.74381057
C      -1.37800465     -0.02921774      0.20339978
N      -2.05766176      1.00678485      0.50930080
N      -1.91124027     -0.94753810     -0.67760669
H       2.16748059      1.35669395     -1.35431927
H       1.60544152      1.85439410      0.24476596
H       0.44727018      1.68917829     -1.08462738
H       0.93228349     -0.76203719     -1.17050103
H       2.29490446     -1.56670663      0.53399806
H       0.19779038      0.20495389      1.63196097
H      -0.01671778     -1.44351027      1.05072494
H      -1.57566369      1.56007869      1.21062515
H      -2.71770983     -0.62936670     -1.19109809
H      -1.28725520     -1.55225589     -1.18216071
