18
b3lypvtz=-181885.27594399
C       2.39300437     -0.30367915      0.43163137
C       0.99902325     -0.53044212     -0.12398897
C       0.25106110      0.67917324     -0.76288066
C      -1.00791695      0.22162910     -0.02353242
C      -0.18292039     -0.69465020      0.87818144
C      -2.33333564     -0.03595600     -0.61888015
N      -2.14944372      1.01589478      0.40635641
H       3.10727811     -0.07993901     -0.36429019
H       2.75577277     -1.18632087      0.96338841
H       2.40228619      0.53391605      1.13315771
H       1.00978931     -1.36703921     -0.82512465
H       0.62614097      1.63027691     -0.37515436
H       0.21018882      0.73250402     -1.85134435
H       0.02660889     -0.22271211      1.84058438
H      -0.55980084     -1.70237015      1.05207617
H      -2.49895230      0.26413432     -1.64780891
H      -2.92128228     -0.88623385     -0.29344695
H      -2.12750168      1.93181427     -0.03173362
