15
b3lypvtz=-216934.0335915
O       1.78353920      0.02342719     -0.58668328
C       0.69441401     -0.03300882      0.31929770
O       1.17372311     -0.16774214      1.64361336
C      -0.25373478     -1.22078435      0.02379394
C      -1.40563781     -0.58638144     -0.70418675
C      -1.34780414      0.74122582     -0.67911559
C      -0.14261079      1.24588254      0.06495729
H       2.27644546     -0.80129180     -0.50018227
H       1.79136677      0.55594401      1.80198542
H      -0.57098893     -1.68997987      0.95832834
H       0.25673459     -1.98643816     -0.56644969
H      -2.19170817     -1.16469141     -1.17073201
H      -2.08117469      1.40256697     -1.12065019
H      -0.42287389      1.70588642      1.01656505
H       0.44041007      1.97528503     -0.50044130
