11
b3lypvtz=-233866.83027152
N      -1.87255618      1.37917210      0.00000388
C      -2.20216719      0.17919064      0.00005566
O      -1.39963313     -0.98352050      0.00005000
C      -0.06625096     -0.97283044     -0.00002453
N       0.65865353      0.07765642     -0.00012028
N       2.01831000     -0.30612446     -0.00014693
N       2.74958624      0.68776105     -0.00024758
H      -0.86221381      1.51578912     -0.00005606
H      -3.23063580     -0.16373366      0.00011866
H       0.34527017     -1.97969634     -0.00002783
H       3.70792812      0.31812306     -0.00034900
