12
b3lypvtz=-249712.81102089
C      -1.60905861      0.98841489      0.53858531
C      -0.76947751      0.26522649     -0.21800486
N      -1.09880402     -0.29179905     -1.44106874
N       0.49449356      0.05244594      0.34487345
N       1.28059308     -0.57240647     -0.40064130
N       2.52031809     -0.70044163      0.11988734
F      -2.85287490      1.26936831      0.08420444
H      -1.37846900      1.37753806      1.51477749
H      -1.87315649      0.14762936     -1.91161281
H      -0.30192262     -0.47357831     -2.03088408
H       3.00857811     -1.49680421     -0.25572827
H       2.57978030     -0.56559338      1.12486886
