11
b3lypvtz=-189695.36293475
N      -2.21322315     -1.22959669      0.00000850
C      -1.22056702     -0.64746525     -0.00001380
C       0.00004111      0.11826560     -0.00002244
C       1.22033092     -0.64797362      0.00016352
N       2.21273152     -1.23053911      0.00031489
C       0.00026438      1.46172739      0.74143013
C       0.00037635      1.46161942     -0.74169133
H      -0.91344319      1.70604187      1.26237680
H       0.91399497      1.70566498      1.26251332
H       0.91417728      1.70549526     -1.26268307
H      -0.91324218      1.70587515     -1.26282453
