16
b3lypvtz=-202057.01101015
C      -2.47273667     -0.84555546      0.26804261
C      -1.68673697      0.42125801      0.10846719
C      -0.37987395      0.51261263     -0.18036302
N       0.35399167      1.70689072     -0.12023274
N       0.39599612     -0.59763233     -0.56196932
C       1.67326382     -0.93890121     -0.11899386
N       2.48222117     -0.31403394      0.62828395
H      -1.82883209     -1.71629136      0.40251077
H      -3.12643276     -1.04493945     -0.58822576
H      -3.12051989     -0.79153982      1.14643248
H      -2.22365990      1.35250074      0.24760340
H       0.93501049      1.87019162     -0.93204871
H      -0.21607090      2.51092868      0.09460395
H      -0.11704538     -1.34799303     -0.99120522
H       1.97476258     -1.90444963     -0.52789382
H       2.09215165      0.57390682      0.94042609
