15
b3lypvtz=-191213.01925847
C      -3.25991579      0.14856715     -0.00002339
N      -2.19240412     -0.54288022     -0.00001304
C      -0.97975357      0.14201629     -0.00001617
C       0.18324906     -0.52193311      0.00000092
C       1.50383806      0.13240090      0.00000185
C       2.71860491     -0.77766732      0.00003201
N       1.57999510      1.40768867     -0.00000938
H      -4.22045072     -0.35808317      0.00009355
H      -3.26486121      1.24416835      0.00009609
H      -0.98525163      1.23199637     -0.00004656
H       0.14900711     -1.60393735      0.00002073
H       2.45086738     -1.83311068     -0.00004255
H       3.33301323     -0.58269356      0.88079056
H       3.33313041     -0.58259178     -0.88062123
H       2.55237477      1.71571749     -0.00000839
