17
b3lypvtz=-191977.21828647
C       2.03197536      1.21333246     -0.40786995
C       1.47471639      0.04066713     -0.09474959
C       2.26059437     -1.18693613      0.26773699
N       0.08650871     -0.18080480     -0.16910889
C      -0.71829342      0.54201691      0.48629303
C      -2.21458780      0.38397524      0.38944567
N      -2.72537736     -0.62911765     -0.51740928
H       3.10578116      1.33465216     -0.41014392
H       1.43189222      2.05862536     -0.71520552
H       3.33072530     -0.98886759      0.25597991
H       2.04039498     -1.99518571     -0.43243183
H       1.98225720     -1.54345422      1.26283443
H      -0.35757050      1.32637362      1.16605463
H      -2.59827654      0.19129353      1.39809243
H      -2.63413853      1.35857781      0.11378219
H      -2.33162801     -1.53012409     -0.26903218
H      -2.38350254     -0.44463502     -1.45429311
