16
b3lypvtz=-204452.94696926
C       2.07366108     -0.55997733     -0.70510414
C       1.19333516     -0.15722619      0.47670021
C      -0.11401503     -0.98926863      0.54488664
C      -1.12374362     -0.04199072     -0.02967766
O      -2.38908113     -0.50448172     -0.26825005
C      -0.61208733      1.18444130     -0.13141432
N       0.72187948      1.25425940      0.36087633
H       2.95731494      0.07920837     -0.76976245
H       1.52034215     -0.48010159     -1.64323962
H       2.41802168     -1.59097717     -0.59932424
H       1.76692035     -0.26175646      1.39846636
H      -0.04225979     -1.92427627     -0.01680389
H      -0.37749252     -1.25211295      1.57438409
H      -2.93965558      0.21910336     -0.58505340
H      -1.11090446      2.08848526     -0.44984075
H       1.33184863      1.80096133     -0.23552412
