15
b3lypvtz=-191220.95375809
C      -2.29483949     -0.60914087     -0.22680403
N      -1.22337719     -1.09196316      0.23185754
C      -0.04309693     -0.25487994      0.44183998
C      -0.23664263      1.17341920      0.13296691
N      -0.43139199      2.27660367     -0.13174582
C       1.14498050     -0.84248425     -0.34781529
C       2.48431301     -0.18944876     -0.01914795
H      -3.13733014     -1.28049009     -0.37241739
H      -2.43865547      0.44309264     -0.48778459
H       0.19414896     -0.32387965      1.50800596
H       1.16673321     -1.90767433     -0.11596160
H       0.92536936     -0.75294099     -1.41346695
H       2.73002597     -0.29940497      1.03910099
H       3.28412415     -0.65611041     -0.59436099
H       2.48362268      0.87531492     -0.25533976
