17
b3lypvtz=-215278.78874987
N       3.11486565     -0.37287177      0.11589787
C       2.01450420      0.16068635     -0.21907071
C       0.65607810     -0.48406789     -0.24620667
C      -0.41514582      0.33481786      0.50039305
N      -0.60169331      1.62325627     -0.17231781
C      -1.70980987     -0.46659112      0.65717851
O      -2.22889122     -0.72468119     -0.64622550
H       2.97581237     -1.35164306      0.38240776
H       2.03362417      1.20806609     -0.52181550
H       0.33178532     -0.59402960     -1.28587354
H       0.72107049     -1.49016849      0.17662890
H      -0.04650674      0.54220759      1.50946917
H      -1.14429942      1.48271014     -1.01794012
H      -1.12904270      2.25975409      0.41361242
H      -2.42296876      0.11966149      1.24943309
H      -1.51034453     -1.40342107      1.19218705
H      -3.07076993     -1.17996069     -0.56646598
