14
b3lypvtz=-201245.54750422
C       2.75059527      0.51362477      1.82298110
C       1.90784954     -0.13386441      1.26904678
C       0.86747188     -0.92531054      0.61990101
N      -0.05694211     -0.08465101     -0.13520579
C      -0.94554527     -0.68204552     -1.00756428
N      -1.97264344     -0.12871271     -1.52431220
N      -2.19084179      1.19862991     -1.07268319
H       3.50074375      1.08733522      2.30751905
H       0.35600982     -1.52922973      1.38169116
H       1.33280277     -1.62764503     -0.07610291
H      -0.46858628      0.67246141      0.39670439
H      -0.72133018     -1.70109196     -1.30399683
H      -1.38561013      1.78448054     -1.29406477
H      -2.97397383      1.55591905     -1.60271351
