14
b3lypvtz=-227007.34630094
C       2.27892736     -0.55707673     -0.27323615
C       1.03121542     -0.05197634      0.39691769
O       0.63366014      1.18806399     -0.14176752
C      -0.78042404      1.24897565      0.00121470
C      -1.20511905     -0.20151336     -0.01321163
N      -2.37566769     -0.63222623     -0.16196286
O      -0.07587518     -0.94887623      0.16366465
H       2.55923319     -1.52650961      0.13715983
H       2.10963067     -0.65290817     -1.34488391
H       3.09397926      0.14558626     -0.10122919
H       1.15491668      0.02806426      1.48570094
H      -1.20586555      1.81035796     -0.82643396
H      -1.07250226      1.72257496      0.94622459
H      -2.41003896     -1.64910640     -0.11524017
