15
b3lypvtz=-216927.72811903
C      -2.32014824     -0.53850612      0.23879658
C      -1.52079223      0.45512564     -0.18006833
C      -0.08115346      0.62076956     -0.02265068
C       0.46254712      2.02665354      0.03457741
C       0.75311817     -0.43901878     -0.01353396
O       0.40131438     -1.73661645     -0.17304502
O       2.09055951     -0.31386582      0.11860401
H      -3.37587907     -0.53002030      0.00680647
H      -1.97719252     -1.34484222      0.87627791
H      -1.99940279      1.27257822     -0.71617956
H       0.01251334      2.64285179     -0.74902847
H       0.23597871      2.51011576      0.98909177
H       1.54170634      2.04654050     -0.09903076
H      -0.53535079     -1.76971667     -0.42484998
H       2.48446552     -1.18050764     -0.03865239
