19
b3lypvtz=-218447.42851094
C      -1.25043979      1.63198611      0.64869842
C      -0.45107342      0.33657529      0.47160208
C      -1.34486622     -0.77960775     -0.08836273
O      -0.91162483     -2.09519958      0.22384881
C       0.80136361      0.61804555     -0.38610752
C       1.59426105     -0.59373333     -0.86637571
O       1.90898876     -1.53044941      0.17317789
H      -0.61670381      2.44297889      1.01270156
H      -2.06574549      1.49854224      1.36083117
H      -1.68521878      1.95649797     -0.30044807
H      -0.12737756      0.00139928      1.46197722
H      -2.34804911     -0.68102225      0.33286856
H      -1.44589870     -0.65414608     -1.17754423
H       0.05092739     -2.10191893      0.32230709
H       0.50339948      1.17904653     -1.27908105
H       1.46525568      1.28436574      0.17606933
H       2.51046978     -0.26475068     -1.36695759
H       1.01826801     -1.17017462     -1.58995139
H       2.39406398     -1.07863496      0.87094616
