14
b3lypvtz=-203676.00992565
C      -0.70365034     -1.23295827     -0.33325325
C       0.68258534     -1.20899543      0.26585067
C       1.18898080      0.02051338      0.16592668
N       0.33779427      0.98783028     -0.45164423
C      -0.92384376      0.23876586     -0.68566097
C      -0.86366595      1.25783669      0.38415719
O       2.39742933      0.46206937      0.57484176
H      -0.75130702     -1.84846385     -1.23697447
H      -1.47092049     -1.61612519      0.34668116
H       1.18907458     -2.06075488      0.68978901
H      -1.44424401      0.48356515     -1.60191689
H      -1.31438992      2.22816530      0.22041014
H      -0.82224192      0.92439975      1.41384599
H       2.49839906      1.36415182      0.24794719
