18
b3lypvtz=-181918.01189588
C      -2.52543650     -0.37603119     -0.29456347
C      -1.10932610     -0.00201130     -0.01636588
C      -0.53154774      1.19503420     -0.13668878
N       0.79271207      1.23717745      0.33542414
C       1.23980282     -0.17272230      0.47286775
C       2.08418488     -0.62090813     -0.71982072
C      -0.09591342     -0.95448403      0.58231747
H      -3.08603454      0.46304883     -0.70897655
H      -2.59036050     -1.20572605     -1.00619953
H      -3.04388253     -0.70535567      0.61309893
H      -0.98964611      2.10816853     -0.49152860
H       1.42026735      1.81578906     -0.20711278
H       1.82991646     -0.27378149      1.38497664
H       1.50992401     -0.55106589     -1.64601112
H       2.40868374     -1.65637234     -0.59662134
H       2.97973288     -0.00342148     -0.82215934
H      -0.04607976     -1.91585481      0.06179801
H      -0.34105601     -1.17632940      1.62757219
