18
b3lypvtz=-181884.85811053
C       2.39944835     -0.96172747      0.27308238
C       1.49299001     -0.28189200     -0.41624419
C       0.30159788      0.41572509      0.17869970
C       0.40880146      1.93474256      0.01994279
N      -0.91269327     -0.04798733     -0.50663326
C      -2.15215362      0.01055491      0.25816541
C      -1.49723204     -1.29270964     -0.02803977
H       3.24760803     -1.42898504     -0.21018498
H       2.33029983     -1.07219168      1.34938206
H       1.58343380     -0.19323394     -1.49495062
H       0.25688603      0.17416922      1.25304940
H      -0.46871652      2.42777308      0.44155435
H       0.47253071      2.20147490     -1.03574986
H       1.29541161      2.31218239      0.52960668
H      -3.03434937      0.31715189     -0.28985826
H      -2.10189943      0.37318816      1.28063786
H      -1.89413446     -1.95211840     -0.78956202
H      -1.00978098     -1.79572070      0.80115535
