15
b3lypvtz=-216922.91746197
O       0.91409726     -1.05883640     -1.66029581
C       0.69906831     -0.81334660     -0.26092817
C       1.35086955      0.46081457      0.20985281
C       0.46338744      1.42854181      0.41078140
C      -0.94533711      0.97340610      0.13938209
C      -0.80629699     -0.55695544     -0.04999959
O      -1.19092326     -1.27885793      1.12065782
H       1.86070672     -1.03981569     -1.83066574
H       0.99999149     -1.68956698      0.32127890
H       2.42187750      0.55708981      0.33514101
H       0.70335378      2.43863266      0.71742652
H      -1.35331694      1.46376302     -0.74989209
H      -1.62493653      1.19625477      0.96612860
H      -1.35637676     -0.91886086     -0.92161377
H      -2.13616446     -1.16226282      1.25274602
