14
b3lypvtz=-222155.53344156
C      -1.26519031     -0.61488155      0.52154071
C      -0.95062266      0.18189170     -0.71654765
N      -2.03860164      0.58124524     -1.48203628
N       0.22034004      0.45673293     -1.15700016
N       1.28981993     -0.05619094     -0.48915840
N       2.50232854      0.28837314     -0.89908692
N       3.40544788     -0.11835993     -0.12703838
H      -0.90574320     -1.64176359      0.41923360
H      -0.78819865     -0.18162713      1.40336601
H      -2.33747133     -0.65876459      0.70070147
H      -2.84990759      0.88021450     -0.96351980
H      -1.79033158      1.21529625     -2.22793064
H       1.22513034     -0.51151172      0.42061986
H       4.28300023      0.17944569     -0.55304340
