13
b3lypvtz=-190443.25801787
C       1.65412741     -0.38910458      0.73902471
C       0.84605321      0.43113241      0.06487111
C       1.15174734      1.82588206     -0.05746890
N       1.36604252      2.95183394     -0.18317413
C      -0.42109888     -0.00606026     -0.59918737
C      -1.65180502     -0.30697263      0.18411899
N      -0.83544697     -1.38879315     -0.37885140
H       1.40514498     -1.43792740      0.81397437
H       2.55172097     -0.02712697      1.21840123
H      -0.57939974      0.42729172     -1.58098046
H      -1.61878444     -0.22946883      1.26315287
H      -2.60891135     -0.07792728     -0.26838979
H      -1.25939005     -1.77275902     -1.21549124
