16
b3lypvtz=-202050.39004473
N       3.03682960      0.77898795     -0.11477127
C       2.28681764     -0.23390484      0.00047557
C       0.89068009     -0.29664350      0.55659733
C      -0.13088019     -0.76728111     -0.50019200
N      -1.48184033     -0.89263697      0.00424948
C      -2.34834289      0.15861971      0.17138858
N      -2.21775341      1.38509759     -0.14427675
H       2.57411174      1.61823380      0.24432480
H       2.69168677     -1.18657371     -0.35542350
H       0.87212886     -1.00617865      1.39034028
H       0.59760732      0.67851693      0.95001669
H       0.17190094     -1.73589113     -0.90104887
H      -0.13338730     -0.07251738     -1.34281633
H      -1.74950968     -1.77117422      0.41223587
H      -3.28557954     -0.15456847      0.63212568
H      -1.31396263      1.58830702     -0.56863954
