19
b3lypvtz=-195146.36813744
C       1.52664554      1.33677546     -0.06693370
C       0.93173606      0.14774085     -0.01005357
C       1.73856983     -1.12309456      0.06914194
C      -0.59538001      0.01755113     -0.00509577
C      -1.09584422     -0.33590853      1.39965793
C      -1.07257051     -1.02779056     -1.02633899
O      -1.22422424      1.27002973     -0.30359345
H       0.95993364      2.25591462     -0.10162634
H       2.60603528      1.42040291     -0.05784071
H       1.43039595     -1.74695660      0.91146637
H       1.62299596     -1.73092711     -0.83114581
H       2.79798687     -0.90030393      0.18812050
H      -0.67808741     -1.28086404      1.74531397
H      -0.81531133      0.44929674      2.10051935
H      -2.18278899     -0.42171736      1.38991774
H      -0.72814005     -2.03199796     -0.78021530
H      -2.16211048     -1.03291834     -1.04559879
H      -0.71122698     -0.78368138     -2.02829940
H      -0.94141691      1.54485293     -1.18282897
