17
b3lypvtz=-171046.63782704
C       2.61899982     -0.65299125      0.00034222
C       1.48688665     -0.25071976     -0.00005040
C       0.11384104      0.22806430     -0.00005243
C       0.07178184      1.76135119      0.00000294
C      -0.83219846     -0.39493829      1.08598005
C      -1.91417533     -0.60812226     -0.00006535
C      -0.83222581     -0.39483187     -1.08611891
H       3.61885694     -1.00841602      0.00023196
H       0.57158791      2.16056948      0.88347797
H      -0.96020541      2.11667921      0.00003223
H       0.57156569      2.16062286     -0.88346288
H      -1.07738976      0.25343348      1.92682436
H      -0.43671559     -1.33421448      1.46770779
H      -2.42220810     -1.57059429     -0.00010515
H      -2.66972225      0.17657384     -0.00001733
H      -0.43676191     -1.33407420     -1.46795175
H      -1.07744427      0.25362207     -1.92689230
