12
b3lypvtz=-200517.92994421
C      -1.85815790     -0.05985163      0.07678905
C      -0.38852269      0.21696970     -0.01352015
C       0.57728754     -0.77677016      0.08067491
C       1.88491521     -0.35846208     -0.02328524
N       2.20960967      0.92602127     -0.20364970
N       1.25252299      1.82649499     -0.28562119
N      -0.02261114      1.49390713     -0.19414247
H      -2.17131257     -0.74880145     -0.71031144
H      -2.10682119     -0.52414175      1.03317872
H      -2.41524433      0.86828898     -0.02227649
H       0.31883997     -1.81732770      0.22682022
H       2.71949445     -1.04632728      0.03534379
