17
b3lypvtz=-194349.32245861
C      -0.85256951     -1.62274526     -0.54821516
C      -0.36883955     -0.26513478     -0.07687947
C       1.11826530     -0.04891024     -0.31953611
C       0.59027218     -0.32590687      1.07364741
O       0.96037487      0.97352252      1.54993567
C       1.58152133      1.27483454      0.26641876
C      -1.38458163      0.84794244     -0.20295146
H      -1.08071300     -1.60642772     -1.61667018
H      -1.76071859     -1.91636922     -0.01723312
H      -0.10250766     -2.39888200     -0.38276370
H       1.69462830     -0.67555412     -0.98419335
H       0.70609237     -1.16269006      1.75056474
H       2.66483177      1.34098040      0.38254920
H       1.19917366      2.19861470     -0.17438874
H      -1.59742090      1.06610144     -1.25235037
H      -1.04374827      1.76246650      0.27854328
H      -2.32406065      0.55815776      0.27352260
