13
b3lypvtz=-242075.63381386
F      -1.27471545      0.94672018      1.37764553
C      -1.54505173      0.50196681      0.08508282
C      -0.28898267     -0.06168077     -0.55494438
C       0.45860469     -1.09554565      0.32644654
O       1.76679948     -0.49970164      0.53064988
C       1.74217263      0.66551086     -0.15686833
N       0.70494133      1.00202191     -0.79400991
H      -1.91227035      1.35082590     -0.49198224
H      -2.32277113     -0.26263802      0.15598715
H      -0.58710602     -0.48921451     -1.51652500
H      -0.00000277     -1.23818409      1.30290477
H       0.60002265     -2.05847326     -0.16087235
H       2.65835934      1.23839229     -0.10361449
