13
b3lypvtz=-211342.23469683
N      -3.14179197      0.24353264     -0.00000622
C      -2.22209066     -0.62747504      0.00000408
N      -0.84059043     -0.47202723      0.00000705
C      -0.14783602      0.70537748      0.00000104
C       1.20026242      0.79306766      0.00000001
N       1.94787667     -0.37519216     -0.00003014
N       3.18916880     -0.20373001     -0.00001346
H      -2.79580553      1.20159883     -0.00001619
H      -2.50107206     -1.67943317      0.00001308
H      -0.27315879     -1.30717531      0.00000480
H      -0.74335892      1.60690025      0.00000394
H       1.70871788      1.74986181      0.00003110
H       3.61461564     -1.13899875      0.00004990
