17
b3lypvtz=-215288.01868004
C      -2.89102317     -0.38669165     -0.00580815
N      -1.48109194     -0.21190245     -0.34302067
C      -0.86398799      0.98692024      0.26622533
C       0.60647876      1.06440392     -0.03119275
C       1.40394849     -0.02235483      0.02824677
N       2.77143270     -0.03275240     -0.20516824
O       0.93800577     -1.26784222      0.27409924
H      -2.98867901     -0.56976035      1.06519389
H      -3.29040116     -1.25331157     -0.53233203
H      -3.50869094      0.48710170     -0.25527319
H      -1.36880864     -0.15038663     -1.34944005
H      -1.36267923      1.90742511     -0.06605237
H      -1.06126584      0.90727428      1.34368925
H       1.04003718      2.02457298     -0.26903997
H       3.22545141     -0.85567670      0.15977968
H       3.24999703      0.81895481      0.03819052
H      -0.04276941     -1.22258724      0.13938775
