18
b3lypvtz=-181894.01728274
C       3.32645659      0.01087186     -0.20165119
C       1.95859162     -0.00327118      0.40658958
C       0.81356574     -0.02895805     -0.26897069
C      -0.54065567     -0.02013793      0.35175444
C      -1.56310085      1.07923746     -0.05573247
C      -2.61335435     -0.05070883     -0.08658046
N      -1.50167818     -1.02530989     -0.18348869
H       3.91611130     -0.84700140      0.13390069
H       3.28077512     -0.01288270     -1.29073808
H       3.88169187      0.90502120      0.09623033
H       1.91894771      0.01135542      1.49375258
H       0.82486792     -0.05730436     -1.35589477
H      -0.44743521     -0.05857063      1.44514181
H      -1.35321879      1.47846491     -1.04690943
H      -1.71247126      1.89855191      0.64354287
H      -3.18265270     -0.10769279      0.84870688
H      -3.31196893     -0.07436770     -0.92440651
H      -1.59710894     -1.87293230      0.36302411
