14
b3lypvtz=-227000.04028971
C       0.91834334     -0.45416735     -0.04242388
C       1.93602485      0.61849154     -0.31840973
O       1.68101256      1.73248955     -0.70179773
C      -0.55090664     -0.06720057     -0.29378741
C      -1.02190606      0.90560699      0.78452129
O      -1.89271676      0.64260795      1.57522926
N      -1.36594708     -1.26782559     -0.41311697
H       1.15934454     -1.31077111     -0.68071773
H       1.07158121     -0.81377885      0.98258662
H       2.98818672      0.30747123     -0.15542087
H      -0.57899950      0.47843534     -1.24185660
H      -0.49876108      1.87972135      0.81038842
H      -2.26359619     -1.03159059     -0.82024906
H      -1.58165989     -1.61948986      0.51505437
