12
b3lypvtz=-226265.96143408
N       2.37858717     -0.45874971      0.03956741
C       1.04551335     -0.19948474     -0.00462047
C      -0.01434601     -1.02878407     -0.00262546
C      -1.23732460     -0.23530018      0.00120180
O      -2.38917991     -0.56528501      0.00058785
O      -0.87384972      1.11355818      0.00083965
C       0.53981055      1.21910744      0.00286064
H       2.69713177     -1.39704620     -0.13020194
H       3.02530025      0.26769532     -0.21435784
H      -0.02371646     -2.10563771     -0.00262080
H       0.86983592      1.76034987      0.89424849
H       0.86817568      1.77388880     -0.88181833
