19
b3lypvtz=-192722.71831654
C       2.45320926      0.51013585     -0.03326222
N       1.52765805     -0.59391938     -0.25721070
C       0.23405913     -0.41555611      0.36994480
C      -0.77564191     -1.56381768      0.17717707
N      -1.83037532     -0.55890897     -0.09848703
C      -0.80070992      0.48383441     -0.36379674
C      -1.13558973      1.85787320      0.18047362
H       2.59151463      0.76945289      1.02813113
H       3.42679996      0.26141778     -0.45566157
H       2.09279375      1.40343729     -0.54629993
H       1.94208994     -1.45799475      0.07196029
H       0.30820641     -0.12001678      1.42765772
H      -0.49709274     -2.17882941     -0.68518861
H      -0.98044206     -2.21066442      1.03229898
H      -2.43687655     -0.77479518     -0.87981619
H      -0.51967126      0.54532666     -1.42201252
H      -0.30047207      2.55003732      0.04978350
H      -2.00063475      2.27770675     -0.33794495
H      -1.37968482      1.79869952      1.24195035
