18
b3lypvtz=-205207.39027063
C       2.51689259     -0.44933820     -0.05634684
C       1.36885747     -0.17506177     -0.66118789
C       0.06208348      0.16753602      0.01672169
C      -0.26091230      1.65371182     -0.22621372
N       0.16009852     -0.04552547      1.46406107
C      -1.03679318     -0.71208456     -0.62033182
O      -2.27793150     -0.41587636      0.01624416
H       3.40881754     -0.67326497     -0.62668769
H       2.60467136     -0.43582568      1.02168009
H       1.33010187     -0.17306804     -1.74721051
H      -0.27114572      1.88192472     -1.29309566
H       0.49188823      2.27328892      0.25763339
H      -1.24160696      1.89956730      0.18078965
H      -0.74306294      0.14627686      1.88267103
H       0.36387017     -1.02123848      1.65659835
H      -0.77029347     -1.76671501     -0.48086625
H      -1.09636860     -0.51414635     -1.69764835
H      -2.95782656     -0.98982275     -0.34537170
