15
b3lypvtz=-214513.81684355
C      -2.61119405      0.39979991      0.74026302
C      -1.61266165     -0.69374372      0.33542010
C      -0.42104100     -0.14201645     -0.37611068
N       0.75538466     -0.30068302      0.08139544
N       1.74232708      0.29427256     -0.72144739
C       2.89708271      0.10744701     -0.23592454
O       3.97401852      0.60782957     -0.87163127
H      -3.48925402     -0.03719296      1.21713772
H      -2.15802500      1.10117370      1.44196563
H      -2.95120907      0.96791856     -0.12769418
H      -1.27113526     -1.24923388      1.20922138
H      -2.11557233     -1.40506742     -0.32904459
H      -0.57730718      0.41642921     -1.30226297
H       3.06973663     -0.44741180      0.68667764
H       4.76884996      0.38027874     -0.37996533
