16
b3lypvtz=-202054.69411967
C       1.89637209      0.00166818      0.91808353
C       0.96283768     -0.22346479     -0.01554696
N       0.98174100     -1.27237282     -0.92375198
C      -0.18877698      0.72355665     -0.18968407
N      -0.08021306      1.98618685     -0.33654153
N      -1.44473701      0.13304409     -0.28604234
C      -1.87584279     -0.87224399      0.68311677
H       2.74770467     -0.65469475      1.04117670
H       1.81598629      0.85334267      1.57433432
H       1.52564790     -2.08406712     -0.68335359
H       0.11289794     -1.47070069     -1.39005777
H       0.89982694      2.25202991     -0.37931704
H      -2.13856975      0.84933471     -0.45603651
H      -2.02208022     -0.46114179      1.68786117
H      -1.13850520     -1.66985546      0.74915692
H      -2.81557051     -1.30853566      0.34635740
