14
b3lypvtz=-224594.15821131
N      -3.05818791     -0.43951937      0.07375806
C      -1.80555316     -0.39187037      0.28860821
N      -0.87975881      0.48604471     -0.23277942
C       0.51399952      0.37166166     -0.11267903
N       1.16486173      1.59656854      0.08608416
C       1.14397225     -0.80359217     -0.22179633
O       2.48006791     -0.90217006      0.13545967
H      -3.35685267      0.25898077     -0.60894755
H      -1.35905704     -1.10285491      0.98087468
H      -1.21767916      1.24436172     -0.80789418
H       2.16504702      1.47865906      0.16890420
H       0.80039208      2.11623161      0.87457065
H       0.63383095     -1.70402415     -0.53335962
H       2.91871029     -1.52223105     -0.45322850
