11
b3lypvtz=-215430.51768549
O       0.99583412     -0.08010735      0.16542995
C       2.17800317      0.06175096      0.02154531
C       2.91931626      1.29904346     -0.09330473
C       4.26287937      1.30728746     -0.25247483
C       4.99347638      0.08212206     -0.31270651
C       4.30165019     -1.06754733     -0.20612181
O       2.97041578     -1.11000379     -0.04732749
H       2.33489896      2.20544445     -0.04395823
H       4.79210557      2.24822567     -0.33516612
H       6.06448919      0.06093132     -0.43906762
H       4.73873102     -2.05574691     -0.23684793
