14
b3lypvtz=-180317.61920103
C       0.80526769     -1.43995126      0.32450501
C       1.08545285      0.04851773      0.63328339
C      -0.42668340      0.24156290      1.05984097
C      -0.62220964     -0.94283342      0.06807827
N      -0.54948995      0.06996829     -1.07180163
C       0.68032911      0.81783386     -0.63682840
C      -0.64606065      1.21716442     -0.11980291
H       1.34423318     -1.92167036     -0.49213990
H       0.85269743     -2.05412497      1.22547738
H       1.93043416      0.39656596      1.21913357
H      -0.77373224      0.29668646      2.08566948
H      -1.49156741     -1.59042934      0.00450698
H       1.29982219      1.25478324     -1.40608851
H      -1.27089329      2.08252649     -0.29053368
