17
b3lypvtz=-191944.16460771
C      -2.04834035      0.60301852      0.20595269
N      -1.35631343     -0.40564384      1.02727595
C      -1.09329122     -0.33950199     -0.41849707
C       0.28787244      0.06391685     -0.87401471
C       1.11556182      0.94305032      0.09772632
C       1.96057464     -0.31597255      0.38766507
N       1.32825443     -0.99985470     -0.77188461
H      -3.10449082      0.47479299      0.00185188
H      -1.74617377      1.62538299      0.39836364
H      -1.98091272     -1.17416914      1.24403655
H      -1.53677673     -1.12103363     -1.03145520
H       0.20314698      0.45492750     -1.89303627
H       1.66341574      1.73604957     -0.40688521
H       0.57589592      1.35132008      0.94800486
H       3.04323515     -0.21166812      0.29399526
H       1.72759207     -0.76324088      1.35650701
H       0.96074982     -1.92127395     -0.56580617
