15
b3lypvtz=-214537.62710068
N      -3.21426274     -0.21163128     -0.00986160
C      -1.93872822      0.23877400      0.02581291
C      -0.80991902     -0.50091565     -0.02896866
C       0.49537467      0.14654055      0.05267536
O       0.65151498      1.35435419      0.17010061
C       1.71114937     -0.78747565     -0.01157142
N       3.01372697     -0.14856004      0.03403876
H      -3.41537790     -1.18069937     -0.18252627
H      -3.97947755      0.43262140     -0.07359511
H      -1.83138068      1.31263765      0.12987497
H      -0.85235352     -1.57960190     -0.13062230
H       1.62672324     -1.50180246      0.81511241
H       1.63276359     -1.38916491     -0.92298720
H       3.05537616      0.45257905      0.85037614
H       3.09774666      0.48693542     -0.75218959
