11
b3lypvtz=-215394.87820333958
C      -0.59304021     -1.01385670     -0.02063977
C       0.40804095      0.13559510      0.03613942
C      -0.49203946      1.13380835     -0.09557338
C      -1.62072222      0.15029726     -0.17134247
O      -2.80795713      0.21433051     -0.29447785
C       1.86735265      0.15069206      0.18517538
O       2.53125219     -0.85355376      0.29285109
H      -0.69430156     -1.60747036      0.88800987
H      -0.51413074     -1.67653674     -0.88250142
H      -0.41808021      2.21218546     -0.13118418
H       2.33362576      1.15450885      0.19354331
