16
b3lypvtz=-204441.54132569
O       2.06558293      0.76267634      0.02612307
C       0.91558966      0.43502863     -0.73941542
C      -0.32102498      1.31238636     -0.40887530
C      -1.26478138      0.47937541      0.49681131
C      -0.81665690     -0.96154172      0.30657386
N       0.45974012     -1.26210480      0.98851864
C       0.44668869     -0.99620716     -0.46538438
H       1.94461466      0.31521493      0.87637307
H       1.20720335      0.55651538     -1.78282804
H      -0.00546731      2.25370133      0.03834240
H      -0.83989810      1.55105725     -1.34008932
H      -2.30905621      0.60459521      0.20815479
H      -1.18070701      0.76117804      1.54733911
H      -1.54941873     -1.75490879      0.23096114
H       0.54756782     -2.25757987      1.16189712
H       0.69982339     -1.79938654     -1.14450205
