15
b3lypvtz=-214517.11593068
C      -2.92454117     -0.81305193     -0.05963754
N      -1.48492809     -0.66767992      0.02554143
C      -0.97438941      0.40920842     -0.37186645
O       0.34465963      0.67662229     -0.34592696
C       1.19758863     -0.35752843      0.17010764
C       2.58556468      0.20327627      0.24262294
N       3.58878676     -0.51789409     -0.02524203
H      -3.33100650     -1.00900980      0.93442037
H      -3.43405413      0.06645584     -0.47520542
H      -3.16762636     -1.67751785     -0.68037170
H      -1.51944870      1.26196557     -0.78488922
H       0.84864767     -0.64907937      1.16528382
H       1.16766196     -1.24048076     -0.46700121
H       2.64476903      1.25011346      0.56111488
H       4.45831600     -0.00336360      0.11104944
