11
b3lypvtz=-267211.76446285
N       2.40531554     -0.84565089      0.05885497
C       1.14586547     -0.75568688      0.12790916
C       0.32784273      0.50015229     -0.01376321
N       0.75191025      1.68815276     -0.10966120
C      -1.17354798      0.30624655     -0.03605852
F      -1.50825043     -0.52898662     -1.06481131
F      -1.56816807     -0.30498706      1.12163940
H       2.84890663      0.06125122     -0.11753153
H       0.57716881     -1.66670535      0.30315721
H       1.77397056      1.73576095     -0.07735562
H      -1.70939351      1.24718702     -0.14656436
