16
b3lypvtz=-202031.07693465
N      -1.82683526      0.79926659     -0.62978648
C      -1.39211589     -0.60407384     -0.57175559
C      -0.13887426     -0.71497657      0.27950766
N      -0.11831739     -1.00146655      1.52104601
N       1.05188465     -0.52226322     -0.41718675
C       1.46297826      0.77683392     -0.93864719
C       2.18800367      0.12706894      0.19553926
H      -2.58559672      0.90701893     -1.29178177
H      -2.17620763      1.09604151      0.27388949
H      -2.14736269     -1.28796786     -0.16358321
H      -1.16428990     -0.92940802     -1.58715503
H      -1.05685523     -1.21401034      1.85330985
H       0.82538199      1.62212517     -0.71738915
H       1.89114724      0.76465011     -1.93334602
H       3.14651126     -0.34468450      0.02055202
H       2.04044790      0.52584571      1.19118690
