18
b3lypvtz=-181878.03659309
C       2.44414622      0.80298651     -0.15713539
N       1.20539277      0.43904060     -0.82580722
C       1.01223498     -0.97795659     -1.11558277
C       0.22507352     -0.30512185     -0.04534188
C      -1.21376908      0.05416084     -0.20037496
C      -1.93604424      0.78180512      0.90300293
C      -2.25933515     -0.66046801      0.61458742
H       3.23047031      0.94107733     -0.90113638
H       2.30578291      1.74756565      0.37098388
H       2.78494427      0.04762095      0.56748922
H       1.78949259     -1.67129382     -0.80650568
H       0.55177714     -1.20646887     -2.06967903
H       0.51885170     -0.56014752      0.97251956
H      -1.48820555      0.32457908     -1.21217595
H      -2.66015923      1.53645880      0.62957999
H      -1.38274504      1.00313274      1.80622485
H      -1.92326362     -1.40432865      1.32503033
H      -3.20464446     -0.89264227      0.14432108
