15
b3lypvtz=-193618.73806519
C      -1.28917702      0.94440235      0.91361166
C      -0.30847675      1.24750834      0.04742605
C       0.05596972      0.01796538     -0.74704360
C      -0.87461350     -1.02301376     -0.18306396
C      -1.64419930     -0.47250445      0.76772363
C       1.55093416     -0.34377533     -0.69926298
O       2.02237074     -0.65154362      0.60089821
H      -1.76401953      1.62653499      1.60450988
H       0.15394135      2.21337618     -0.09566786
H      -0.18707325      0.18909175     -1.80602696
H      -0.88365295     -2.05292318     -0.50650013
H      -2.40568592     -0.97527399      1.34604389
H       1.73367902     -1.23356940     -1.30318774
H       2.12587867      0.47937828     -1.14247554
H       1.71412456      0.03434644      1.20301547
