17
b3lypvtz=-191962.08979234
C       1.88629926     -1.10800969      0.52156480
C       1.27995409     -0.17428070     -0.21929815
C      -0.13214375     -0.33483644     -0.72798524
C      -1.12023298      0.62381297     -0.09088712
C      -1.87806094      0.22657981      1.11369691
N      -2.56319457      0.36176945     -0.18759759
N       1.85348299      1.06267844     -0.52392938
H       1.36976453     -2.01297901      0.80173117
H       2.89866905     -0.98020079      0.88319702
H      -0.45843542     -1.36138690     -0.55372911
H      -0.14138743     -0.18000761     -1.81478714
H      -0.86993547      1.67220768     -0.20318538
H      -1.70599070     -0.76793150      1.50907215
H      -2.15497984      0.96602666      1.85428764
H      -2.72165972     -0.55815473     -0.58806085
H       2.84356616      1.12952432     -0.34344712
H       1.61428473      1.43518802     -1.43064263
