14
b3lypvtz=-203640.59296463948
C      -1.79617582     -0.64787556      0.25008819
C      -1.63751773      0.62984743      0.62178888
C      -0.32182218      0.74881109     -0.10563798
C      -0.51597701     -0.68554221     -0.56656083
C       0.64236497     -0.33744029      0.37094046
N       1.93910122     -0.22887550     -0.25485956
O       0.12285826      1.85601438     -0.79103070
H      -2.45771363     -1.43507491      0.58509190
H      -2.12890184      1.26707799      1.34480442
H      -0.35973258     -1.08346742     -1.55811515
H       0.59376803     -0.69364532      1.39955376
H       2.24870229     -1.10826962     -0.64977399
H       2.63892104      0.07287430      0.41129163
H       1.03212498      1.64556565     -1.05758102
