15
b3lypvtz=-214523.47069402
C      -3.13979537     -0.28786087     -0.00000323
N      -1.83440730      0.33470068     -0.00002421
C      -0.80921231     -0.39892045     -0.00007109
C       0.55482053      0.20886502     -0.00004893
N       0.84132957      1.44034192     -0.00000438
O       1.49081019     -0.76314601     -0.00002700
C       2.85377260     -0.32517136      0.00002286
H      -3.10617639     -1.38420486     -0.00001139
H      -3.69460174      0.05395387     -0.87602630
H      -3.69454821      0.05394031      0.87605882
H      -0.84663900     -1.49400932     -0.00003067
H      -0.02347712      1.97853238     -0.00001516
H       3.45368750     -1.23100857      0.00000406
H       3.06226696      0.27617461     -0.88448545
H       3.06222109      0.27610265      0.88459105
