9
b3lypvtz=-212241.72049406
C       1.51202393     -0.33103271     -0.02822553
C       0.31101243     -0.30781869      0.07062505
C      -1.14279698     -0.38063769      0.22529342
O      -1.67592349     -1.39468138      0.62433872
N      -1.79617355      0.75933787     -0.11174000
C       2.87351992     -0.34657926     -0.14405118
N       4.02520100     -0.35237511     -0.24456722
H      -2.79900328      0.77947367     -0.02936849
H      -1.30785998      1.57431327     -0.43777119
