17
b3lypvtz=-191937.75255276
C       2.27240973      0.40508804      0.04228954
N       1.06214420      0.26409825      0.84969808
C      -0.13303376      0.04148177      0.12019001
C      -0.85890844      1.19770982     -0.52572541
C      -1.57889538      0.35012565      0.47301593
N      -2.07337033     -0.85992788     -0.22291199
C      -0.64939739     -1.28073405     -0.47965535
H       2.15587134      1.25548150     -0.63066634
H       2.51510209     -0.47532689     -0.56901957
H       3.12117389      0.61014805      0.69546723
H       1.18767157     -0.43932963      1.56684715
H      -0.53210226      2.16315950     -0.16334900
H      -1.16545785      1.15919869     -1.56486075
H      -2.03058843      0.73444003      1.37666944
H      -2.50891882     -1.49683021      0.43330287
H      -0.43145945     -1.48979657     -1.52941165
H      -0.35224072     -2.13898608      0.12811979
