16
b3lypvtz=-204442.39561709
C       1.85858237     -1.10579261      0.35771785
C       0.71861323     -0.87822038     -0.63905173
C      -0.41185057     -0.02742462     -0.09862615
C      -0.15032028      1.42967025      0.09967332
O       0.92035368      1.96280433     -0.04873515
C      -1.44411945     -0.64431067      0.79042255
N      -1.80936688     -0.24302965     -0.56048220
H       2.32340992     -0.16224661      0.63733855
H       1.49871667     -1.59378881      1.26554177
H       2.62688998     -1.74401557     -0.08093841
H       1.11286648     -0.40161472     -1.53962310
H       0.30312818     -1.84233599     -0.94726175
H      -1.05110657      2.00726704      0.38917321
H      -1.90414894     -0.06577936      1.58277835
H      -1.31108168     -1.69641280      1.01426607
H      -1.83034915     -1.04493084     -1.18229318
