14
b3lypvtz=-203700.49335612
C      -2.79046318      0.06047502     -0.38684601
C      -1.49617001     -0.64565779     -0.13264152
C      -0.36020885     -0.05650272      0.23193857
O      -0.29947583      1.29480006      0.46010212
C       0.91014638     -0.82701020      0.52377197
C       2.07260889     -0.25235944     -0.15631965
N       2.96333507      0.25754783     -0.67663234
H      -3.18988705     -0.20310236     -1.36933508
H      -2.66801893      1.14054838     -0.34257804
H      -3.54770829     -0.22529105      0.34878554
H      -1.48174822     -1.72332940     -0.23644665
H       0.59099024      1.62481082      0.29026172
H       0.79576762     -1.86803544      0.22396744
H       1.11945016     -0.81188870      1.59861892
