14
b3lypvtz=-224569.66343547
N      -2.25119249     -1.09176916     -0.09375467
N      -1.01902451     -0.92877557      0.01708607
C      -0.62182972      0.43443247      0.05267742
N      -1.59105419      1.38352529     -0.19483600
C       0.68455273      0.69027636      0.28360071
C       1.75957405     -0.32487901      0.48975354
O       2.80112349     -0.19505934     -0.48829086
H      -2.41766975     -2.10455455     -0.11518097
H      -1.42518893      2.30370831      0.17440959
H      -2.53205811      1.03708432     -0.07758376
H       1.00737829      1.72630439      0.29628813
H       1.34569364     -1.33295525      0.50067757
H       2.25926630     -0.15343609      1.44585696
H       2.40174119     -0.32424916     -1.35469873
