10
b3lypvtz=-199785.46998772
C       0.10161070      0.93396096     -0.22486851
C      -1.23118321      0.64078352     -0.07637308
N      -1.29788927     -0.67741600      0.23617707
N      -0.10617499     -1.27246574      0.30426244
C       0.75914105     -0.29392690      0.02343196
C       2.16012222     -0.53991106     -0.00262307
N       3.30094119     -0.69616705     -0.03409171
H       0.54785962      1.87959165     -0.47324211
H      -2.11238411      1.25156312     -0.16653072
H      -2.12204319     -1.22601249      0.41385773
