13
b3lypvtz=-213712.29088513
C       2.14178182     -1.32057368     -0.00004909
C       1.87070321     -0.01619607     -0.00002913
C       0.53821025      0.57871373      0.00002875
C       0.32321842      1.89624917      0.00002131
O      -0.44798159     -0.39757508      0.00012248
N      -1.75382892      0.10784326     -0.00016521
N      -2.53129255     -0.83401952      0.00003723
H       1.35866446     -2.06501099     -0.00002035
H       3.16437177     -1.67131764     -0.00009204
H       2.67780327      0.70643013     -0.00005200
H      -0.66171507      2.32998462      0.00007097
H       1.17731049      2.55597843     -0.00005821
H      -3.46320855     -0.40740735     -0.00020869
