15
b3lypvtz=-214486.9718502
C      -0.67583806      1.82067883      0.00001241
C      -0.75494570      0.48998515     -0.00000793
C       0.42650623     -0.43835378     -0.00001091
O       1.62275941      0.30910009     -0.00001172
C       2.77551060     -0.50672190      0.00000569
N      -2.06567623     -0.05507431     -0.00013832
N      -2.09984343     -1.30188891     -0.00007623
H      -1.58566885      2.40389965      0.00005454
H       0.27864113      2.32318469      0.00002051
H       0.37331513     -1.09732830      0.87704061
H       0.37332472     -1.09734258     -0.87705265
H       3.63972231      0.15485929     -0.00000971
H       2.81561716     -1.14656913      0.89008277
H       2.81561546     -1.14660778     -0.89004361
H      -3.09301287     -1.56764202     -0.00000443
