15
b3lypvtz=-214527.77481288
N       3.01217138     -0.89537813      0.10928468
C       2.56132985      0.28811237     -0.00958306
N       1.26113378      0.73610670      0.01923382
C       0.12579115     -0.16513294      0.00730779
C      -1.18112275      0.61346357      0.16407509
C      -2.37345966     -0.30090830      0.30443945
O      -3.36913701     -0.23275748     -0.36612418
H       2.27172970     -1.58926226      0.20105806
H       3.27520610      1.10393793     -0.12511285
H       1.10500074      1.66585949     -0.33388365
H       0.23139261     -0.86998869      0.83721073
H       0.09720026     -0.76069448     -0.91401020
H      -1.35586456      1.28260598     -0.67961912
H      -1.12038898      1.21653078      1.07754476
H      -2.28118260     -1.06949455      1.10184869
