15
b3lypvtz=-193585.09024791
C      -1.84958104     -1.84239743     -0.27175186
C      -1.31620325     -0.80833923      0.01881331
C      -0.66750089      0.45712203      0.37953104
C      -1.46052112      1.66950376     -0.09303296
O       0.63988064      0.56467066     -0.20229456
C       1.59659589     -0.26935478      0.29504201
C       2.82941443     -0.30263624     -0.19183531
H      -2.31794768     -2.75771679     -0.53586399
H      -0.56645427      0.49382775      1.47088972
H      -0.95081413      2.58128935      0.21554913
H      -1.54470033      1.66057999     -1.17857074
H      -2.46103232      1.65527632      0.33689095
H       1.28295081     -0.90058002      1.12030658
H       3.55900677     -0.96585144      0.24605735
H       3.12724549      0.32201206     -1.02198668
