13
b3lypvtz=-237109.24467736
C      -1.48911210      1.26090266      0.11176668
C      -1.10204339     -0.17617929     -0.04274979
O      -2.17677277     -0.98210409     -0.11236917
N       0.05006748     -0.72399638     -0.11309658
C       1.22353066      0.05914138     -0.11025941
N       2.31419051     -0.71540452      0.14216468
O       1.30139257      1.25885986     -0.31734955
H      -1.39178130      1.76274280     -0.85141784
H      -0.81312682      1.77097303      0.79121992
H      -2.51998479      1.32868965      0.45088648
H      -1.83820306     -1.88319331     -0.22973235
H       2.21907190     -1.70873209      0.24038674
H       3.22283411     -0.29058770      0.11759918
