19
b3lypvtz=-216037.90724154
C       2.99743316     -0.43873586     -0.31484919
N       1.84160738      0.29349776      0.18609282
C       0.60470061     -0.48033006      0.17781783
C      -0.59873379      0.40358949      0.53496431
N      -0.78487677      1.54583757     -0.36522944
C      -1.89691950     -0.40005314      0.60178651
O      -2.32214788     -0.86433808     -0.68094175
H       3.18446911     -1.39181927      0.20407785
H       2.85454782     -0.66359423     -1.37356787
H       3.89124947      0.17942437     -0.22485751
H       2.03027205      0.61387571      1.12927025
H       0.45949840     -0.88109825     -0.82894017
H       0.64358214     -1.34739733      0.85931539
H      -0.43480666      0.80960782      1.54125672
H      -0.91346711      1.18970356     -1.30807132
H       0.08433700      2.06759481     -0.40086993
H      -2.67468993      0.21391292      1.06323495
H      -1.75430066     -1.28987644      1.21758537
H      -2.81887784     -0.15691536     -1.10138680
