11
b3lypvtz=-241318.98634155
N       2.58347324      0.39558641      0.60061236
C       1.52457553      0.25168915     -0.05432480
F       1.49010105      0.29588073     -1.41297902
C       0.21934607      0.02227159      0.55530157
C      -0.92180466     -0.13515051     -0.12235119
C      -2.19341611     -0.36142604      0.58370475
O      -3.25352297     -0.50989013      0.02425134
H       3.39061882      0.54565004     -0.00244423
H       0.23646511     -0.01346006      1.63759730
H      -0.95668168     -0.10280377     -1.20348458
H      -2.11915438     -0.38844742      1.68961649
