13
b3lypvtz=-237066.06632777
C       2.49611253     -0.84696541      0.00312017
O       1.06479791     -0.74735706     -0.00581079
C       0.57628844      0.50407331     -0.00086311
O       1.26568597      1.50029250      0.01050298
C      -0.89650350      0.57507245     -0.00767765
N      -1.62883938     -0.47256633      0.00714431
N      -2.95855419     -0.33467573     -0.05296071
H       2.71348614     -1.91100977     -0.00390362
H       2.92078264     -0.36422244     -0.87617815
H       2.90906426     -0.37824886      0.89553585
H      -1.30024797      1.58861845     -0.02529842
H      -3.45729922     -1.14789132      0.26516055
H      -3.36507862      0.55956021      0.20336160
