12
b3lypvtz=-247197.10572959
N       2.29540411     -0.76892760      0.00419258
C       1.16287659     -0.02591670     -0.00522533
O       1.23220268      1.22441667     -0.01146141
N       0.00963128     -0.77049240      0.00405859
C      -1.11755456     -0.09879288      0.00926027
N      -2.28719918     -0.76558242      0.00089070
O      -1.23566853      1.21341164      0.01152613
H       2.23414799     -1.76740784     -0.06619954
H       3.18048163     -0.30347332     -0.07437605
H      -3.14805531     -0.25843200      0.08971101
H      -2.27237482     -1.76528921      0.07688688
H      -0.26438387      1.53928105      0.00263318
