12
b3lypvtz=-223825.24897169
C      -2.93000988     -0.32476878     -0.00001386
N      -1.84519136      0.33646925      0.00000807
N      -0.69057466     -0.36678455      0.00003117
C       0.53511046      0.25118403      0.00005008
O       0.73109467      1.43946865      0.00004629
N       1.54025588     -0.79097064      0.00003806
C       2.73665546     -0.37573986      0.00002030
H      -3.85722404      0.23165214     -0.00003428
H      -2.97319401     -1.41687143     -0.00001545
H      -0.69217102     -1.38154099      0.00003235
H       3.54296678     -1.10377110     -0.00009346
H       2.98489772      0.68745429     -0.00008927
