16
b3lypvtz=-181103.22525665
C      -1.74610606      0.87275402      0.39024929
C      -1.18520844     -0.27065194     -0.34855901
C      -0.09971523     -0.95960533      0.44910169
C       1.09920759     -1.44233223     -0.40698454
C       1.75937748     -0.03881818     -0.29434885
C       0.57170077      0.46076207      0.54637879
N      -0.47739232      1.08463543     -0.32047063
H      -1.74739754      0.86705575      1.47623659
H      -2.57489177      1.40214450     -0.06112502
H      -1.64012983     -0.65169020     -1.25561991
H      -0.40273484     -1.58855334      1.28592384
H       0.84556973     -1.77853498     -1.41280025
H       1.67704809     -2.22785192      0.07806757
H       1.89484850      0.51197051     -1.22408252
H       2.70251311     -0.04815609      0.25077673
H       0.77571075      1.00967192      1.46575624
