15
b3lypvtz=-193606.91662129
C       2.79196232      0.94914981      0.00008551
C       2.36327939     -0.52642954     -0.00008610
C       0.91471657     -0.70210444     -0.00004438
C      -0.28424793     -0.84844679      0.00000186
C      -1.69502488     -0.98498540      0.00005308
C      -2.51315133      0.07895031      0.00003369
O      -2.11913230      1.36947531     -0.00003445
H       2.41137737      1.46334523      0.88312613
H       2.41133314      1.46356435     -0.88280849
H       3.87958456      1.02944876      0.00006665
H       2.78734006     -1.02916783     -0.87465028
H       2.78741100     -1.02939137      0.87431495
H      -2.13240791     -1.97405513      0.00011039
H      -3.58966884     -0.01729331      0.00007310
H      -1.15035223      1.39225504     -0.00006668
