14
b3lypvtz=-203673.35956409
C       1.85904486      0.46161417      0.25622864
C       0.46380033      0.08458901     -0.12096886
N       0.21852942     -1.10942532     -0.95634956
C      -0.48004994     -1.03360381      0.30463284
C      -1.72559880     -0.15187772      0.16827887
C      -0.74216725      0.98962942     -0.21191719
O      -0.87069321      2.17609312     -0.31811861
H       2.33376799      1.02340610     -0.55050701
H       1.86612860      1.08818732      1.14894583
H       2.45434519     -0.43150042      0.44257468
H      -0.38628820     -0.92909284     -1.75331118
H      -0.29512693     -1.78882097      1.05469485
H      -2.46394737     -0.47535609     -0.56706593
H      -2.23164468      0.09605801      1.10278264
