14
b3lypvtz=-227011.11146446
C       1.92056553      1.66192757      0.16347457
C       1.29332342      0.61879837      0.70177239
N       0.25889298     -0.14119438      0.14233449
C      -0.32028709      0.00122244     -1.08435436
O      -0.02838326      0.84188071     -1.91327379
C      -1.40411267     -1.03863192     -1.38516398
O      -1.78774233     -1.84200519     -0.27163357
H       2.70279075      2.14254942      0.73261019
H       1.67832547      2.04096351     -0.81500734
H       1.56528257      0.26410224      1.68812068
H      -0.10082071     -0.91294881      0.68285221
H      -2.25084317     -0.51023260     -1.82618792
H      -1.00617303     -1.71100028     -2.14674106
H      -2.52081845     -1.41543108      0.18109750
