18
b3lypvtz=-181862.68716543
C      -2.53778326      0.13575688      0.05868957
C      -1.12178174     -0.36134694      0.26071744
C      -0.13946069     -0.45595702     -0.94258324
C       1.03360858     -0.48527886      0.08460938
C       0.04155816      0.64450430      0.49891149
N      -0.12631650      1.06577368     -0.95374920
C       2.45789226     -0.17232303     -0.33339839
H      -2.55903328      1.00083217     -0.60008061
H      -3.16135754     -0.64917956     -0.37580999
H      -2.98658683      0.41424607      1.01512165
H      -1.08825350     -1.23016976      0.91994897
H      -0.25366983     -1.03398114     -1.86019311
H       1.02265207     -1.35423839      0.74935137
H       0.14314625      1.37799563      1.29939107
H       0.76037682      1.40532561     -1.32423958
H       2.90113273     -1.02625172     -0.85004623
H       3.07641835      0.03611997      0.54212352
H       2.53745797      0.68817209     -1.00011193
