12
b3lypvtz=-226251.2468703
O      -0.42516601      2.33245656      0.16822735
C      -0.05126213      1.19993736     -0.00828183
N       1.24187718      0.73009661      0.13706359
C       1.27543954     -0.67217623      0.04683674
C       0.07813400     -1.17732296     -0.25411206
C      -0.89968095     -0.04159503     -0.41565580
O      -2.12855174     -0.14464785      0.27335536
H       1.97514765      1.29875155      0.52671425
H       2.21111856     -1.18808037      0.19547010
H      -0.15532207     -2.21543287     -0.41962793
H      -1.17251455      0.08765220     -1.46757571
H      -1.94911949     -0.20973897      1.21758594
