17
b3lypvtz=-217677.11895883
O       2.18154816     -1.08538318      0.64360673
C       1.23653384     -0.06186862      0.89633288
C       0.30850304      0.16113074     -0.29065036
O       1.09657340      0.47045815     -1.44292095
C      -0.67467339     -0.99865535     -0.55180752
C      -1.77712596     -0.18460472      0.17593447
C      -0.89529512      1.08413424      0.02727168
H       2.49164390     -0.95344699     -0.26098895
H       0.66924785     -0.36023739      1.77987484
H       1.73824238      0.88977854      1.13465873
H       1.52455146      1.32341963     -1.30217070
H      -0.39765686     -1.97167743     -0.15057027
H      -0.87173113     -1.09044561     -1.61886161
H      -2.75788086     -0.15658714     -0.29418885
H      -1.90120603     -0.48472900      1.21559446
H      -0.80288046      1.74795502      0.88847921
H      -1.16839423      1.67075912     -0.84959379
