18
b3lypvtz=-181880.08609551
C       1.62274702      1.31171362     -0.46131581
C       0.57964415      0.27378925     -0.09974140
C      -0.69414239      0.37082793     -0.84402912
N      -0.57203368      0.91806418      0.58084247
C      -1.53511055     -0.15537829      1.01504217
C      -1.73235970     -0.66433744     -0.43044755
C       1.17899852     -1.03196992      0.37582843
H       2.28566285      1.49614533      0.38672988
H       2.23199588      0.97428532     -1.30287139
H       1.15008678      2.25641012     -0.72692615
H      -0.79962925      1.03430381     -1.69487119
H      -2.42245997      0.31313076      1.43512517
H      -1.12936709     -0.85317955      1.74839156
H      -1.50318230     -1.70834013     -0.65006486
H      -2.72403796     -0.43998009     -0.81766222
H       1.91057959     -1.38599630     -0.35300665
H       1.70348793     -0.88365765      1.32311084
H       0.44912016     -1.82583095      0.51586578
