10
b3lypvtz=-248791.31319533
N      -2.28058437     -0.85768336     -0.23907422
C      -1.07743500     -0.63423495     -0.55696931
C      -0.20511562      0.32001874      0.23692574
O      -0.62380995      0.90207062      1.20158025
C       1.26187016      0.55761287     -0.19721241
O       2.01372555      1.29003299      0.37374689
O       1.57622883     -0.16438526     -1.29437569
H      -2.52379339     -0.30848978      0.59352349
H      -0.64227720     -1.13102079     -1.41839870
H       2.50129098      0.02607889     -1.51574605
