16
b3lypvtz=-181150.07601758
C      -2.70095230     -0.33815923     -0.07989040
C      -1.73193754      0.56293347      0.09333581
C      -0.30678169      0.29461740      0.02700861
C       0.68252699      1.20569945      0.04267290
C       2.00927770      0.51496723     -0.13927247
C       1.63738430     -0.95692325      0.14601386
N       0.18882299     -1.01431741     -0.13892694
H      -3.74339144     -0.05962056     -0.01279973
H      -2.48802633     -1.37193445     -0.31923309
H      -1.99310480      1.59453430      0.30019535
H       0.53811203      2.27443283      0.05419192
H       2.79773288      0.87844001      0.52178677
H       2.37469723      0.63497038     -1.16651492
H       1.83611267     -1.19395743      1.19812095
H       2.18616162     -1.66552641     -0.47336760
H      -0.30965431     -1.71618634      0.39008497
