15
b3lypvtz=-216914.0570282
C       0.66802834      1.42255534      0.02947737
C      -0.66803903      1.42255045      0.02947746
O      -1.56429547      0.41905806     -0.19946076
C      -1.26972062     -0.89792649      0.25563725
C       0.00000524     -1.50041438     -0.32402556
C       1.26972684     -0.89791740      0.25563709
O       1.56429222      0.41906939     -0.19946093
H       1.16275517      2.37325836      0.17926895
H      -1.16277255      2.37324978      0.17926912
H      -2.13980136     -1.48597365     -0.03324121
H      -1.20589451     -0.89222659      1.35196079
H       0.00000478     -1.40747118     -1.41284743
H       0.00000920     -2.56966396     -0.08820033
H       2.13981189     -1.48595814     -0.03324143
H       1.20590086     -0.89221758      1.35196063
