16
b3lypvtz=-204456.37646542
C       1.92845630     -0.53711602      0.80691407
C       1.16922131     -0.14749580     -0.45575533
C      -0.09723193     -0.97833432     -0.69681476
C      -1.17468021     -0.17264132     -0.00739007
N      -2.30110965     -0.63186492      0.33567245
C      -0.60535025      1.22461409      0.18761621
O       0.69401538      1.21498982     -0.38285287
H       2.73643151      0.17030165      0.99326618
H       1.27329112     -0.54823784      1.68070150
H       2.36033958     -1.53418412      0.69999517
H       1.84497114     -0.17512508     -1.31050303
H      -0.05091258     -1.99630376     -0.31541456
H      -0.32487111     -1.02682954     -1.76463661
H      -2.87376423      0.08580480      0.78436517
H      -1.20625998      1.98249721     -0.32013961
H      -0.57690438      1.47333616      1.25644408
