20
b3lypvtz=-182657.70342215
C      -3.15769437     -0.03171640      0.17481635
N      -1.83481000     -0.33333940     -0.35268757
C      -0.79526453      0.56915910      0.12736606
C       0.56936372      0.19054191     -0.41359985
C       1.27373741     -1.08678490      0.12780257
C       2.61447231     -0.30958908      0.10871633
C       1.80371350      1.00991409      0.04621403
H      -3.87383237     -0.77391064     -0.17941945
H      -3.20765625     -0.00194811      1.27529884
H      -3.48347585      0.94345167     -0.19409711
H      -1.58569605     -1.28756313     -0.12082568
H      -0.74811395      0.60977448      1.23121703
H      -1.05010234      1.58130084     -0.20597525
H       0.52075653      0.15431913     -1.50390529
H       0.95639622     -1.31123751      1.14897764
H       1.20763046     -1.99779888     -0.46674204
H       3.17034926     -0.48635161     -0.81230843
H       3.28988849     -0.44812255      0.95219209
H       2.16187512      1.79780349     -0.61598894
H       1.65118168      1.43456453      1.04048668
