17
b3lypvtz=-191951.76657124
C      -1.85707994     -0.33234314      0.76802338
C      -0.70641720      0.07808568     -0.09440316
C      -0.02710967     -0.81853683     -1.09741858
C       0.79054570     -0.19668878      0.00632950
C       1.02699467      1.27917671     -0.32124224
N      -0.45175132      1.50024053     -0.38492072
N       1.47535635     -1.01936720      0.94270131
H      -1.92866601      0.31648276      1.64248024
H      -1.73337713     -1.36198713      1.10615544
H      -2.80353714     -0.26901820      0.22388915
H       0.10049874     -0.49674822     -2.12682849
H      -0.20544814     -1.87776163     -0.96549039
H       1.58402701      1.49450251     -1.23915222
H       1.47143052      1.84316601      0.50314588
H      -0.77635314      1.78653011     -1.30410548
H       1.71626564     -0.51272248      1.78585025
H       2.32462107     -1.41301068      0.55498615
