13
b3lypvtz=-190465.58614782
C      -2.34478176      0.00545976     -0.00003869
C      -0.99825922      0.00050405     -0.00000947
C      -0.19288143     -1.21925761     -0.00001203
N       1.09222693     -1.26911028     -0.00006569
C       1.79604320     -0.07134829     -0.00003752
C       1.15435183      1.11394502      0.00000676
N      -0.21299687      1.15859319      0.00001285
H      -2.88565235     -0.92759144     -0.00004516
H      -2.91905139      0.92139171     -0.00005312
H      -0.73869761     -2.15852703     -0.00011888
H       2.87295254     -0.13272490     -0.00005237
H       1.66632940      2.06510002      0.00000655
H      -0.67709628      2.05058379      0.00001978
