13
b3lypvtz=-216144.98281007
C       1.09553090      0.44797149     -0.62131015
C       0.48933309      0.65540020      0.77492027
C       0.22460146     -0.61027789     -0.06427351
C      -1.25754607     -0.23919972     -0.23064441
C      -0.95552039      1.00913991      0.63572989
O      -1.65665802      1.84918160      1.12391712
O       0.67059114     -1.87875007      0.25869905
H       0.78043042      1.06498840     -1.45443054
H       2.15743712      0.24340064     -0.58010711
H       1.12909149      0.81349839      1.63087071
H      -1.64148812     -0.08849688     -1.24079582
H      -1.91477354     -0.91283572      0.32036885
H       0.87897051     -2.35402035     -0.55294436
