13
b3lypvtz=-213747.34523979
C      -0.18113061     -0.11683284     -1.11439409
C       0.90786688     -0.48518074     -0.06897106
C      -0.46087333     -1.04158381      0.07327009
N      -1.41734714     -0.05481182      0.58259414
C      -1.15158687      0.84369849     -0.46394217
O      -1.54868910      1.95512540     -0.67675993
N       1.52190771      0.37327905      0.89554120
H      -0.08560767     -0.34869191     -2.16324290
H       1.61577453     -1.19095133     -0.49171901
H      -0.71932024     -2.08990296      0.05552875
H      -1.52870932      0.20890831      1.55333668
H       0.84468687      0.96485434      1.36034491
H       2.20302829      0.98208982      0.45841339
