13
b3lypvtz=-239503.53601572
C       0.71110445      1.96001125      0.02145633
C      -0.05295077      0.66418207      0.02186184
C      -1.40597444      0.63057870      0.12339368
O      -2.16663705     -0.45517825      0.13288189
C       0.63387607     -0.60970501     -0.08744923
O       1.97658553     -0.51381731     -0.18617896
O       0.08478277     -1.71147376     -0.09434662
H       1.28602142      2.08950572     -0.89733076
H       0.02697692      2.80427893      0.11132657
H       1.41923424      2.01152126      0.85052312
H      -1.97900997      1.54765736      0.20787360
H       2.31378248     -1.41928317     -0.25248526
H      -1.55236465     -1.22825279      0.05181580
