18
b3lypvtz=-181899.7938463
C      -2.58781676     -0.17616363     -0.08299473
C      -1.11668707      0.05294945     -0.30976797
C      -0.19176297      0.47083448      0.76901870
C       1.11951229      1.15073092      0.39245775
C       2.03689173     -0.02575884     -0.00441292
C       1.06660121     -1.11939532     -0.48409573
N      -0.19322529     -0.92933124      0.27337961
H      -2.97760631     -0.92160663     -0.77958374
H      -2.76583873     -0.53853925      0.92938950
H      -3.15273407      0.74810668     -0.22470110
H      -0.85907407      0.41137354     -1.30501297
H      -0.57662996      0.61304952      1.77287740
H       1.52636690      1.72472598      1.22429904
H       0.98379325      1.84281697     -0.44129897
H       2.77734178      0.24244720     -0.75885543
H       2.57849834     -0.37997361      0.87464066
H       0.88396709     -1.04563457     -1.56050511
H       1.44850263     -2.12073165     -0.28483396
