12
b3lypvtz=-221404.86092621
N       3.55997105     -0.21368076     -0.73870644
C       2.40982986     -0.47910641     -0.28068006
N       1.24662491      0.23011233     -0.60541009
C       0.16846497     -0.16789209     -0.05493026
N      -1.03060019      0.48098735     -0.32188655
N      -1.98409585     -0.05462250      0.31388825
N      -3.14014886      0.52071662      0.10376379
H       3.49220199      0.58768043     -1.37056508
H       2.30700443     -1.31749399      0.41750520
H       0.11537358     -1.01640998      0.63898379
H      -3.20739615      1.30535531     -0.53458613
H      -3.93732973      0.12435370      0.56552358
