14
b3lypvtz=-227001.58423285
C       2.67870583      0.63693690     -0.01168414
C       1.60514160      0.14113008      0.58730167
C       0.42038072     -0.39667077     -0.14218715
O      -0.75646969      0.27721148      0.36386159
C      -1.93944917     -0.15491612     -0.10900574
N      -2.06537239     -1.09071007     -0.94350574
O      -2.95135507      0.55749173      0.43801386
H       3.53683328      0.97726975      0.55225694
H       2.74161013      0.71232564     -1.09081439
H       1.56334565      0.07892444      1.66993071
H       0.49177520     -0.23271248     -1.21723493
H       0.29302204     -1.46796046      0.02542371
H      -3.04311813     -1.25223809     -1.16051560
H      -2.57505001      1.21391798      1.03815923
