14
b3lypvtz=-201291.37840538
C      -2.40972747      0.04988190      0.62562115
C      -1.52513617     -0.06794147     -0.61154388
N      -0.10417794      0.01121256     -0.29673407
C       0.68848066      1.10005104     -0.16844009
C       1.90719100      0.59106813      0.20259553
N       1.80292398     -0.76114357      0.28491747
N       0.58654977     -1.10908416     -0.01421736
H      -3.45876411     -0.04642470      0.34258544
H      -2.27662427      1.01414696      1.11715862
H      -2.17142797     -0.73752888      1.33997548
H      -1.67413016     -1.02770012     -1.10273919
H      -1.75027527      0.71806913     -1.33257822
H       0.33832844      2.10021584     -0.34973707
H       2.83185951      1.10300235      0.40253119
