14
b3lypvtz=-180343.92254075
C       2.63836555      0.34871216      0.43534406
N       1.70300710     -0.41661275      0.06499140
C       0.44579898      0.15316037     -0.25687513
C      -0.35460145     -0.51593009     -1.33759488
C      -0.77967062     -0.68817133      0.10087546
C      -1.95733658     -0.04436336      0.60166043
C      -2.94373407      0.49938251      1.01895636
H       2.53177608      1.43603019      0.52041508
H       3.60555449     -0.07872541      0.68506050
H       0.33220866      1.22936954     -0.14525103
H      -0.96542170      0.11395360     -1.96727745
H       0.09922832     -1.36951774     -1.81898391
H      -0.53892366     -1.64313494      0.54900454
H      -3.81625109      0.97584727      1.38975541
