16
b3lypvtz=-204434.08340697
C      -1.33272060     -0.66002686      1.08676144
C      -0.54056955     -0.29760198     -0.17375560
C      -1.48978914      0.32064117     -1.18642503
O      -2.05526355     -0.29926657     -2.04873076
N       0.49561171      0.67955486      0.14677000
C       1.67041946      0.69816651     -0.72203004
C       1.75480404      0.15011042      0.65585529
H      -0.66661896     -1.09014207      1.83547459
H      -2.10901145     -1.38832710      0.85366472
H      -1.79656475      0.22825100      1.51765210
H      -0.13138296     -1.21357329     -0.62385328
H      -1.64820949      1.41070811     -1.05374565
H       2.07098150      1.67778536     -0.94799987
H       1.70709631     -0.01289323     -1.54116351
H       1.84999170     -0.92671143      0.75459947
H       2.22132572      0.72342511      1.44672613
