13
b3lypvtz=-237011.5926445
O      -3.07287751      1.10747245      0.93706120
N      -2.13980313      0.06218876      1.01087042
C      -0.95088936      0.48856271      0.90027573
C       0.19582293     -0.47872872      0.95364183
C       0.96101795     -0.51321374     -0.33736026
N       2.17551500     -0.14980135     -0.35914236
O       2.72224880     -0.24993554     -1.64744474
H      -3.91334768      0.64961505      1.03969790
H      -0.74721548      1.54932608      0.75800086
H      -0.20317170     -1.47059329      1.17607668
H       0.88465935     -0.19568476      1.75233163
H       0.45868871     -0.84385145     -1.24587931
H       3.62925211      0.04474379     -1.51672957
