12
b3lypvtz=-226258.76455302
C      -0.97822759      0.07565705      0.40259148
C      -0.39506982     -1.03690133     -0.47215008
N       1.05375195     -1.13347187     -0.34505641
C       1.67535571     -0.07795837     -0.07830880
O       1.15348317      1.19550210      0.08374104
C      -0.21482911      1.36190303      0.22708896
O      -0.66284339      2.46674849      0.23236905
H      -0.88900138     -0.20723808      1.45636509
H      -2.02941415      0.26768267      0.19912412
H      -0.83252588     -1.99821175     -0.20537620
H      -0.63378511     -0.86704502     -1.52702044
H       2.75310560     -0.04666693      0.02663218
