15
b3lypvtz=-216913.28645284
C       1.53611576      0.29441482     -0.08390789
C       0.85642271      1.41761196      0.15028872
O      -0.47080058      1.61816873      0.35863773
C      -1.42353665      0.70866727     -0.19088458
C      -1.24486380     -0.75075101      0.18737346
O      -0.23667822     -1.38626721     -0.57137658
C       1.08129658     -1.13837349     -0.11281324
H       2.60603795      0.42954967     -0.19375966
H       1.38643251      2.35896918      0.22969248
H      -2.38708917      1.06976752      0.17004099
H      -1.40103792      0.78526277     -1.28284993
H      -1.05331682     -0.85093603      1.26434162
H      -2.17484519     -1.27517965     -0.04250345
H       1.19718656     -1.56984274      0.89547492
H       1.72857628     -1.71096182     -0.77765459
