12
b3lypvtz=-226202.03421391
C       0.23069678      0.04976878      0.75290621
C       0.83035635      0.29868592     -0.65115118
C       0.17416777     -0.98757352     -0.34641547
O      -1.26162536     -0.82395009     -0.46174118
C      -1.24936901      0.06811420      0.62556617
N      -2.19550471      0.61155728      1.23153875
O       2.21712340      0.22949499     -0.72738858
H       0.82705749      0.11423625      1.64768309
H       0.33775130      0.99518584     -1.32437192
H       0.59817924     -1.97512450     -0.43407842
H      -3.09876670      0.34867549      0.84021008
H       2.58993345      1.07092935     -0.44379026
