16
b3lypvtz=-181158.95888482
N       2.36443127     -0.08648897      0.08468777
C       0.96587337     -0.10121563     -0.00587657
C       0.23489135     -1.21970192     -0.02178359
C      -1.26557604     -1.23617155      0.00226260
C      -1.87195531      0.13446294     -0.00261180
C      -1.15377826      1.25064770     -0.00454734
C       0.34599090      1.27048048      0.00618475
H       2.80557014      0.66009804     -0.43308172
H       2.80323365     -0.97288650     -0.11766094
H       0.73856804     -2.18145721     -0.03318035
H      -1.62965520     -1.78813820      0.88070412
H      -1.65402390     -1.80464844     -0.85423814
H      -2.95486209      0.19423360     -0.00357939
H      -1.65202638      2.21381088     -0.00724152
H       0.71761460      1.84421160     -0.85580589
H       0.71158383      1.81810917      0.88459899
