14
b3lypvtz=-203662.80729575
C      -0.23732989      1.29000652     -0.36974848
C      -0.63501487      0.50765095      0.82518578
C       0.45444153     -0.04053635     -0.13382492
C      -0.50072521     -1.18822406     -0.43861983
N      -1.48958768     -0.64281754      0.54526976
C       1.88877491     -0.15316048      0.12511563
O       2.53841010     -1.15761584     -0.05145951
H      -0.90399531      1.37789349     -1.22059174
H       0.37670452      2.16183259     -0.18001018
H      -0.50762459      0.87436750      1.83497630
H      -0.11710404     -2.15647524     -0.12261749
H      -0.84452466     -1.25316814     -1.47345147
H      -2.38855428     -0.39197565      0.14617352
H       2.36612948      0.77222224      0.51360262
