15
b3lypvtz=-193575.50134467
C       2.10713238      1.09984399     -0.17337477
O       1.63979721     -0.09874773     -0.77579059
C       0.47145797     -0.58157776     -0.20225104
C      -0.37236921     -1.45883287     -1.04593405
C      -0.86574850     -0.05208560     -0.71108148
C      -1.96429886      0.14480538      0.18539547
C      -2.87873952      0.30277888      0.94881962
H       2.32247581      0.95137774      0.89050459
H       3.02494815      1.37595912     -0.68803651
H       1.37667255      1.90895769     -0.27476095
H       0.53204647     -0.78926688      0.86306427
H      -0.04289846     -1.61878122     -2.06260870
H      -0.87789695     -2.29198571     -0.58024583
H      -0.78425038      0.66183607     -1.52135753
H      -3.68832865      0.44571890      1.61955750
