12
b3lypvtz=-226249.02030981
C       2.08241723     -0.62540206      0.00000310
C       0.60174361     -0.43025129      0.00000590
C      -0.12753672      0.71389015      0.00000227
O       0.14390087      2.03056762     -0.00001432
O      -1.44761626      0.41538878      0.00002296
C      -1.46936724     -0.95244633      0.00000705
N      -0.30487425     -1.49323596      0.00004602
H       2.55952480     -0.19246194      0.88343596
H       2.55954065     -0.19231628     -0.88334981
H       2.29795845     -1.69215084     -0.00008179
H       1.09876902      2.15393110     -0.00001948
H      -2.43850217     -1.41876495     -0.00004085
