20
b3lypvtz=-182670.99000654
C      -1.22255232      1.61794509     -0.23870685
C      -0.63080514      0.47766271      0.10650011
C      -1.36267524     -0.84613320      0.10637056
N      -2.80161203     -0.71783884     -0.11037954
C       0.81717408      0.42448369      0.53009990
C       1.73930568     -0.32327810     -0.44814701
C       3.20215974     -0.30534022     -0.00684372
H      -0.68155932      2.55573053     -0.21910090
H      -2.25297098      1.63989794     -0.56389363
H      -1.10330037     -1.36977959      1.04098293
H      -0.96299836     -1.47040813     -0.69909045
H      -3.23937889     -0.26928765      0.68606433
H      -3.22610830     -1.63143040     -0.20762885
H       1.18861285      1.44431315      0.65425764
H       0.89205659     -0.05636747      1.51309472
H       1.64530008      0.13149495     -1.43797812
H       1.40790237     -1.35947565     -0.55319988
H       3.57840034      0.71712203      0.07055165
H       3.83759037     -0.83957801     -0.71499840
H       3.32617783     -0.77642383      0.97095552
