20
b3lypvtz=-182665.99371336
C      -3.66096363     -0.07580304      0.46377359
C      -2.63935034      0.22188982     -0.32895858
C      -1.32332049     -0.49473485     -0.35953431
C      -0.14389185      0.41472196     -0.00105877
N       1.12488455     -0.28547568     -0.15279431
C       2.29191105      0.52105458      0.18725805
C       3.57656217     -0.28426888      0.04928134
H      -3.61125261     -0.89752904      1.16917416
H      -4.58550088      0.48575528      0.43474245
H      -2.73852710      1.05592143     -1.01963190
H      -1.35232405     -1.34688033      0.32614171
H      -1.13986220     -0.89693108     -1.36076806
H      -0.29208706      0.81760317      1.01464105
H      -0.13369639      1.27693663     -0.67517437
H       1.11884485     -1.12404864      0.41839894
H       2.22820213      0.94485996      1.20394896
H       2.31743301      1.37345729     -0.49789089
H       3.58724266     -1.12929639      0.74235592
H       4.44826856      0.33330694      0.26993836
H       3.67568665     -0.67829513     -0.96254433
