10
b3lypvtz=-220640.45531581
C      -0.45939672     -1.16416191     -0.23137897
C       0.02866102      0.12853106     -0.19515135
N      -1.09259360      0.89180723     -0.25182318
N      -2.19043027      0.14492007     -0.31783545
N      -1.80720498     -1.10949822     -0.30561883
N       1.26837553      0.75734372     -0.12205686
N       2.24088259     -0.02173912     -0.07392359
H       0.08186110     -2.09200256     -0.20801112
H      -1.15197926      1.89822701     -0.24806139
H       3.08182459      0.56657271     -0.02311770
