15
b3lypvtz=-191235.04839898
C      -2.47746314     -0.60800530     -0.00000181
C      -1.08394379     -0.06384027     -0.00000549
N      -0.03080429     -0.88010172      0.00001600
N       1.04837448     -0.07422067      0.00000765
C       2.37422203     -0.65231560      0.00000008
C       0.70629327      1.23425352      0.00000841
C      -0.67079246      1.28503456      0.00000016
H      -3.20709599      0.20089737     -0.00006804
H      -2.65758462     -1.22848078      0.87943629
H      -2.65754172     -1.22859017     -0.87937092
H       2.51515764     -1.27085305     -0.88609791
H       2.51515049     -1.27088924      0.88607360
H       3.10940576      0.14928543      0.00001928
H       1.45013956      2.01273862     -0.00001266
H      -1.28975821      2.16540530      0.00002337
