15
b3lypvtz=-191209.72959026
C      -3.28478131     -0.73140001     -0.00008666
C      -2.39421188      0.26342098      0.00060342
C      -0.96466947      0.02576297     -0.00032590
N      -0.13541692      1.00205649      0.00022005
C       1.24564498      0.71377895     -0.00056851
N       1.74596742     -0.44722128      0.00108144
C       3.19749972     -0.56394966      0.00050845
H      -4.34963426     -0.54354530      0.00077236
H      -2.96878222     -1.76774476     -0.00149697
H      -2.70730818      1.30087119      0.00189177
H      -0.62387144     -1.01325070     -0.00170255
H       1.85502082      1.62342791     -0.00222751
H       3.63919052     -0.09579079     -0.88462229
H       3.63967905     -0.09549569      0.88523190
H       3.47788117     -1.61563130      0.00069000
