13
b3lypvtz=-190465.36912995
C      -2.49599060     -0.97858310     -0.00000542
C      -1.41565705      0.08376309     -0.00000257
N      -1.64152703      1.33735638     -0.00000257
C      -0.00942005     -0.38417401     -0.00000070
C       1.03483459      0.45265150     -0.00000037
C       2.38200433      0.00514399      0.00000283
N       3.48420940     -0.33658909      0.00000483
H      -3.13047266     -0.86747036      0.88074772
H      -3.13046776     -0.86747172     -0.88076231
H      -2.09030959     -1.98888190     -0.00000369
H      -2.64149162      1.53710281     -0.00000400
H       0.16195303     -1.45292033     -0.00000040
H       0.86374201      1.52265972     -0.00000035
