15
b3lypvtz=-212102.997119
C      -1.35929494      1.24994791     -0.27081249
C      -1.16418511     -0.18028317      0.12827235
N      -2.33803890     -0.89173258      0.33248952
C       0.04591822     -0.74050897      0.34605807
N       1.21437434     -0.00341216      0.23217456
N       2.25817697     -0.65289255      0.46034685
N       3.38478658      0.12042497      0.41614247
H      -1.96853180      1.77064368      0.47218058
H      -0.40377416      1.75509001     -0.36629991
H      -1.88794897      1.31245465     -1.22729104
H      -3.12553887     -0.61072087     -0.22984407
H      -2.24619494     -1.89324008      0.40220537
H       0.13501080     -1.78587293      0.63266966
H       3.26982660      0.98201266     -0.11153148
H       4.18541418     -0.43211058      0.15103954
