15
b3lypvtz=-193630.73159101
C      -2.03924785      1.10206613     -0.39213690
C      -0.88679801      0.46539938     -0.16670988
C       0.45641284      1.01135879     -0.26509530
C       1.37259612      0.07585872      0.03459029
O       2.72182316      0.17323892      0.06238848
C       0.77373143     -1.25291209      0.38283563
C      -0.74703164     -0.99879635      0.24955485
H      -2.06240034      2.14357122     -0.68474909
H      -2.99203385      0.59948489     -0.29034097
H       0.67107388      2.03469250     -0.54330882
H       2.98824252      1.06816724     -0.17736724
H       1.13838993     -2.02897309     -0.29487962
H       1.06967313     -1.55623639      1.39030936
H      -1.26654550     -1.18213084      1.19033302
H      -1.19798582     -1.65468902     -0.49542381
