12
b3lypvtz=-200525.52492355
N       2.47821118      0.19993910     -0.28915130
N       1.53537760     -0.70587925     -0.29723802
C       0.30258670     -0.29362686     -0.18952873
C      -0.86097004     -1.15213117     -0.17468005
C      -1.92472502     -0.31781930     -0.04624249
C      -1.37095196      1.02423313      0.01177224
N      -0.06752119      1.04839859     -0.07176520
H       3.42283086     -0.12092847     -0.38695125
H       2.24262966      1.18251528     -0.21301250
H      -0.84472377     -2.22659778     -0.25176896
H      -2.97015317     -0.57668008      0.00277519
H      -1.94249084      1.93857680      0.11159106
