16
b3lypvtz=-204436.26693286
C       1.10276180     -0.77259491      0.61515402
C       1.58232905      0.33896220     -0.32865110
N       0.37569071      1.15613831     -0.52949806
C      -0.76764744      0.25282173     -0.61637972
C      -0.36090855     -0.98611057      0.20672016
O      -1.33856201     -0.67564519      1.23132870
C      -1.85480039      0.43871743      0.45905249
H       1.12387862     -0.43619412      1.65147777
H       1.70638501     -1.67570866      0.53134541
H       2.38292553      0.94059566      0.10344126
H       1.96379143     -0.09903192     -1.26349717
H       0.45128762      1.77336906     -1.32560832
H      -1.12992532      0.08464436     -1.63353448
H      -0.55443905     -1.96642765     -0.23250924
H      -2.87779477      0.24540241      0.12451172
H      -1.80497224      1.38106186      1.00664655
