14
b3lypvtz=-180324.39770897
C       3.31810140     -0.18876261      0.13934019
C       2.12275888     -0.28965108      0.15875247
C       0.69432751     -0.42871222      0.21616226
C      -0.15529067      0.75306153      0.50827650
N      -0.06692771      0.20338770     -0.89521296
C      -1.48141020     -0.29732683     -0.73161700
C      -1.61450731      0.35406023      0.66882720
H       4.37506112     -0.09848149      0.11083483
H       0.34954266     -1.39931745      0.56287151
H       0.28793687      1.70300668      0.77627899
H      -1.56639320     -1.38346491     -0.79028403
H      -2.11686701      0.15213828     -1.49073419
H      -2.28995452      1.20678962      0.66831556
H      -1.85637784     -0.28672743      1.51733684
