15
b3lypvtz=-214524.55821814
C       0.69455250      1.56529780     -0.15662383
C       0.43642938      0.25705125     -0.18409234
C       1.49375253     -0.81736938     -0.08408607
N       2.82441212     -0.29237923      0.20320616
N      -0.84749686     -0.28347597     -0.39190821
C      -1.81913875      0.09525732      0.31540753
O      -3.07573082     -0.33827226      0.11507122
H       1.71040179      1.91669596     -0.06159569
H      -0.09198937      2.29490825     -0.29096441
H       1.52562220     -1.33707513     -1.04595361
H       1.13829360     -1.56238341      0.64370477
H       2.88277975      0.02496752      1.16369897
H       3.52013000     -1.01803602      0.08865345
H      -1.76344739      0.79052044      1.15267692
H      -3.05352267     -0.93585216     -0.64751884
