17
b3lypvtz=-217687.72201779
C      -2.51222799     -0.21022847     -0.12969751
O      -1.32012148      0.48688669     -0.45897736
C      -0.29784773      0.34764628      0.50030040
C       0.88465094      1.23176355      0.06547381
C       2.02952267      0.23559612     -0.20391320
C       1.28663687     -1.09243942     -0.34166900
O       0.19243575     -0.97971920      0.57529555
H      -3.22726792     -0.00850188     -0.92465580
H      -2.92579639      0.14555200      0.82171666
H      -2.34046050     -1.28646597     -0.05908134
H      -0.69797271      0.57798457      1.49318297
H       1.14016859      1.95893347      0.83409092
H       0.59646214      1.77676588     -0.83169526
H       2.60877803      0.48762452     -1.09156625
H       2.71287100      0.19222353      0.64478241
H       1.87033878     -1.96414637     -0.05127452
H       0.91467696     -1.23852229     -1.36143347
