14
b3lypvtz=-201282.40248476
N      -1.33949521     -0.24538830      1.20371415
C      -0.59309609      0.58873694      0.30504255
C      -0.50633594      0.17689268     -1.13100061
C       0.71775415      0.00661924     -0.23070504
N       1.13279743     -1.27504025      0.26215550
C       1.79497194      0.94844408     -0.43353562
N       2.63586999      1.71338985     -0.61993068
H      -2.32846512     -0.23004367      0.98964800
H      -1.21960815      0.04404188      2.16613577
H      -0.56975019      1.65658866      0.49650197
H      -0.49514119      0.94864676     -1.88719131
H      -0.99417168     -0.74736368     -1.40945834
H       1.40056001     -1.89678113     -0.48993230
H       0.36401005     -1.68864305      0.77855597
