13
b3lypvtz=-213751.31765714
C      -2.25740924     -0.57155243      0.25270875
N      -1.36129498     -0.16702856     -0.53614018
C      -0.25556465      0.56930477     -0.07896440
N      -0.26866607      1.82046923      0.15126512
C       1.02207741     -0.20017402      0.01221853
C       2.21609847      0.38850328      0.01408627
O       0.80840706     -1.54842300      0.09496674
H      -2.21911879     -0.42268264      1.33555332
H      -3.11993016     -1.09727770     -0.15014669
H      -1.19936837      2.20518303     -0.00407902
H       3.13063835     -0.18522028      0.09170507
H       2.27955898      1.46187294     -0.05403266
H       1.65928198     -1.99851660      0.12441314
