13
b3lypvtz=-218785.24970458
F       2.36663026     -0.52197422     -0.00009641
C       1.63286583      0.66945586     -0.00000358
C       0.17013438      0.35915338     -0.00001372
C      -0.93516234      1.17931775      0.00004192
C      -2.08339034      0.34110546     -0.00007884
C      -1.64430234     -0.95978428      0.00009007
N      -0.27305816     -0.93446012     -0.00001718
H       0.33892507     -1.73098942      0.00010007
H       1.92994970      1.23257752      0.88762199
H       1.92993273      1.23272649     -0.88754027
H      -0.92466163      2.25672911      0.00002765
H      -3.11191997      0.65990511     -0.00008458
H      -2.18494420     -1.88968864      0.00001888
