17
b3lypvtz=-194374.59798174
C       3.66198104     -0.32288646     -0.00000600
C       2.35382017      0.40479597     -0.00000355
C       1.17511701     -0.20389604     -0.00000202
O       0.00000005      0.49704145      0.00000081
C      -1.17511702     -0.20389585      0.00000307
C      -2.35382008      0.40479635     -0.00000198
C      -3.66198107     -0.32288585      0.00000113
H       3.51961024     -1.40467428     -0.00000405
H       4.26192537     -0.06571394     -0.87742373
H       4.26192987     -0.06571139      0.87740787
H       2.37130962      1.48899685     -0.00000302
H       1.07144207     -1.28490580     -0.00000153
H      -1.07144225     -1.28490563      0.00000865
H      -2.37130934      1.48899723     -0.00000839
H      -4.26192716     -0.06570926      0.87741647
H      -3.51961046     -1.40467370      0.00000439
H      -4.26192806     -0.06571464     -0.87741512
