16
b3lypvtz=-204425.31497236
C       2.67526145     -0.56374582     -0.12147173
C       1.59785619     -0.09577833      0.12589267
C       0.27764839      0.49562702      0.36601527
O       0.25479757      1.86910274     -0.02350014
C      -0.84341749     -0.31713046     -0.32549064
C      -2.20965180      0.28259049     -0.01717780
N      -0.79048868     -1.69291445      0.16881947
H       3.63497640     -0.97175579     -0.32001860
H       0.07576760      0.48816815      1.43945520
H       0.66957782      1.94364469     -0.88962673
H      -0.66212941     -0.24083508     -1.40963492
H      -2.24669956      1.33162075     -0.30353134
H      -2.42523817      0.19972226      1.04966759
H      -2.99122575     -0.25018437     -0.56280942
H      -1.57320061     -2.22674466     -0.18849459
H       0.05716705     -2.15602615     -0.13689827
