12
b3lypvtz=-223785.71164542
N      -3.58506637     -0.06550605      0.00000855
C      -2.39793678      0.39608450      0.00000331
C      -1.15166076     -0.35530303      0.00000035
C       0.02986829      0.26462685     -0.00000685
O       1.19495267     -0.43878036     -0.00000683
N       2.31345686      0.43450576     -0.00003305
N       3.32998390     -0.23412710     -0.00003741
H      -3.57668030     -1.08807693      0.00001088
H      -2.29253166      1.48404680      0.00000091
H      -1.19339234     -1.43853466      0.00000401
H       0.14784602      1.34105416     -0.00001085
H       4.09829745      0.44446906     -0.00005501
