13
b3lypvtz=-242057.1996061
O       0.35592333      0.25018140      2.05747939
C       0.57344583      0.14184355      0.87344614
C       1.96232400     -0.11805502      0.31767625
F       2.88897705     -0.28471325      1.31421490
C      -0.50683041      0.26405380     -0.15046836
C      -1.76512063     -0.50662322      0.10853339
N      -1.74688392      0.93852999      0.24887009
H       2.25962445      0.72809542     -0.31161138
H       1.94184909     -1.01572757     -0.30980465
H      -0.19783867      0.42968104     -1.17593751
H      -1.78618457     -1.11455239      1.00472704
H      -2.31982790     -0.88869556     -0.73890083
H      -1.65945765      1.17598181      1.23557553
