15
b3lypvtz=-191233.97617982
C      -2.29396817      0.42446725     -0.12267738
N      -1.30356418     -0.63466895     -0.00193480
C       0.02510161     -0.27350187     -0.25332249
C       0.60742787      0.91006499     -0.65126062
C       2.01937305      0.69898572     -0.66956201
C       2.25507539     -0.59442651     -0.29368885
N       1.03043846     -1.18311756     -0.04136551
H      -2.32458690      0.89034587     -1.11642916
H      -2.08023009      1.20437398      0.60858516
H      -3.27858591      0.01385414      0.09728988
H      -1.57748669     -1.45656297     -0.52447120
H       0.08868439      1.81551493     -0.91312748
H       2.76949157      1.42062186     -0.94590537
H       3.17041009     -1.14932629     -0.19015036
H       0.89241951     -2.08662458      0.37395392
