19
b3lypvtz=-192742.53710513
C       1.91402608      1.50376670     -0.43108155
C       1.25627435      0.64929197      0.66430251
C       0.59100864     -0.59965715      0.13917078
N       1.50908445     -1.59072701     -0.24536761
C      -0.73198154     -0.81805724      0.08503782
C      -1.83851873      0.07460404      0.55092893
N      -2.76168584      0.37103138     -0.56128959
H       1.17397082      1.84158170     -1.15773164
H       2.68544841      0.95617458     -0.97618596
H       2.38951651      2.38465505      0.00280185
H       0.53285687      1.25766243      1.20171285
H       2.01537573      0.35110648      1.39352585
H       2.36364440     -1.24148015     -0.65149228
H       1.11365726     -2.32584527     -0.81277224
H      -1.07098463     -1.75729963     -0.34472867
H      -2.43038719     -0.44471310      1.31291532
H      -1.43831522      0.97398838      1.03233337
H      -2.27431797      0.89564526     -1.27905975
H      -3.52816441      0.95101657     -0.23788400
