18
b3lypvtz=-202806.00610483
C       3.01034490     -0.29736768     -0.30757858
N       1.86463891      0.19076991      0.45709419
C       0.65652494     -0.54229564      0.24864988
C      -0.48102169      0.09190701     -0.09678156
N      -0.59358452      1.48071779     -0.09658426
N      -1.64633829     -0.58277492     -0.48094850
C      -2.88204210     -0.30897031      0.25681452
H       2.82705169     -0.14793066     -1.37232547
H       3.22033021     -1.36610093     -0.15200597
H       3.90218649      0.26880813     -0.03337639
H       2.10524646      0.22688238      1.44070918
H       0.66288770     -1.62701919      0.34791767
H      -1.07817245      1.83491452     -0.91059190
H       0.31936839      1.90324613      0.01779688
H      -1.46860797     -1.57439070     -0.55176486
H      -3.10563407      0.75441914      0.22502128
H      -3.70286035     -0.84335585     -0.22058374
H      -2.83023524     -0.61062112      1.31082463
