17
b3lypvtz=-171053.18485301
C       1.93650326      0.03331343     -0.10527573
C       0.47082133     -0.23073325      0.07444871
C      -0.06112607     -1.52861664      0.65078465
C      -0.51489529     -1.12645304     -0.71270971
C      -1.60615153     -0.05362246     -0.59356777
C      -0.59640693      0.81277836      0.16090926
C      -0.59844647      2.07696231      0.55707964
H       2.47068171     -0.88081579     -0.36992594
H       2.38219504      0.41772848      0.81603589
H       2.11083919      0.77038387     -0.89176012
H      -0.75542730     -1.52105857      1.48400892
H       0.67041971     -2.32603160      0.68907870
H      -0.31399231     -1.72277752     -1.59114874
H      -1.88385068      0.39337095     -1.54857886
H      -2.51492537     -0.34942531     -0.06402322
H       0.28611236      2.53927659      0.97740112
H      -1.48235064      2.69572019      0.46724319
