15
b3lypvtz=-191190.7641016
N      -1.09673328      2.07229970      0.39750359
C      -0.82464168      0.86832032      0.15524226
C      -1.71229248     -0.35275217     -0.05876134
C      -0.44918671     -1.25665690      0.12821679
C       0.41512323      0.01464544      0.08428521
C       1.63533626      0.25045903     -0.72841243
N       1.67941770      0.33283668      0.73694258
H      -0.23885008      2.60487328      0.56107163
H      -2.13314536     -0.39855228     -1.06364971
H      -2.51579976     -0.47517348      0.66530900
H      -0.42909002     -1.74717483      1.10169933
H      -0.26277872     -1.99478971     -0.64985872
H       1.76433890      1.19472406     -1.24354187
H       2.07549435     -0.60875612     -1.22192627
H       2.09290763     -0.50420302      1.13587995
