8
b3lypvtz=-245572.079937
C       1.47294524      0.07858346     -0.06306354
O       2.10938956      0.87434522      0.57234271
C      -0.00476431     -0.00847735     -0.00686149
N      -0.83907025      0.79052229      0.76168787
N      -2.00866527      0.44513165      0.56569962
O      -1.96743738     -0.65129114     -0.39040907
N      -0.69555626     -0.87162020     -0.69519506
H       1.93315866     -0.65719392     -0.74420105
