17
b3lypvtz=-215268.74057244
C      -0.69480786     -0.64879693      1.08841700
C      -1.33278979     -0.52960065     -0.27320451
C      -0.03766477      0.18212875     -0.00256452
C       1.26962335     -0.25053761     -0.61665232
N       2.37278867      0.32469953      0.16984675
O      -0.14275276      1.57772546      0.11037771
N      -2.58834328      0.16664040     -0.41731807
H      -1.15974276     -0.09178335      1.89135484
H      -0.26509872     -1.59862869      1.38064160
H      -1.27593490     -1.41110194     -0.90165664
H       1.30212470     -1.34396610     -0.69865381
H       1.33746358      0.15978821     -1.62723017
H       2.50841627     -0.19368796      1.02981071
H       3.24523737      0.29398787     -0.34143148
H       0.72497781      1.86844666      0.42763689
H      -2.57610289      1.00383773      0.15465485
H      -2.68739401      0.49084861     -1.37402886
