10
b3lypvtz=-225497.26980848
C      -0.84542750     -1.18554766     -0.05518317
C      -0.44922012      0.09028440     -0.01585580
C      -1.40005942      1.16102262     -0.03295666
N      -2.19158928      1.99693870     -0.04819725
C       0.98909133      0.49848582      0.04788625
O       1.36317136      1.63962926      0.08359351
O       1.82366900     -0.56308061      0.06085184
H      -1.89391502     -1.44336249     -0.10100274
H      -0.12001601     -1.98482344     -0.04173437
H       2.72429567     -0.20954659      0.10259841
