17
b3lypvtz=-217664.05067243
C       2.53212268      0.22253418     -0.09073899
O       1.18247988      0.64473216     -0.12338312
C       0.30643125     -0.23461865      0.53409248
C      -0.17307449     -1.47076477     -0.25308272
O      -1.53834245     -0.99941967     -0.23564355
C      -1.17245191      0.21040460      0.48673152
C      -1.52198066      1.47326064     -0.26531454
H       2.67226331     -0.73814925     -0.59980687
H       2.89441969      0.12665050      0.94028916
H       3.11925895      0.98066913     -0.60523802
H       0.67832656     -0.45535238      1.54045598
H      -0.06858684     -2.43701403      0.24694483
H       0.22586760     -1.53501687     -1.26920572
H      -1.64666112      0.21144412      1.47287785
H      -1.21586892      2.35354257      0.30291074
H      -1.03123156      1.50250406     -1.23620969
H      -2.60202897      1.51728966     -0.41325633
