15
b3lypvtz=-212115.4694722
N       2.50252782      0.92292566     -0.18468941
N       1.71021998     -0.12543209     -0.80246462
C       0.58135289     -0.24508989     -0.21020824
N      -0.37326420     -1.19317103     -0.56630973
C      -1.68826415     -0.68976128     -0.16304033
C      -1.33306150      0.19316974      1.05343729
N       0.08805282      0.46786621      0.85886811
H       3.05505468      0.49068806      0.55473620
H       3.17685541      1.18791817     -0.89279810
H      -0.26711545     -1.55424683     -1.50123172
H      -2.36162837     -1.50441441      0.10082129
H      -2.16157934     -0.09138742     -0.95077994
H      -1.49821701     -0.34365208      1.99128021
H      -1.92712055      1.10698251      1.07829369
H       0.49608697      1.37760468      1.00218531
