15
b3lypvtz=-191219.63248042
C      -2.41960697     -0.40194148     -0.49897182
C      -1.68653295      0.45280575      0.20182664
C      -0.25434750      0.26765219      0.60360972
C       0.75661259      1.20106370     -0.14191745
N       1.95763852      0.38383523     -0.38625546
C       1.62391738     -0.81582844     -0.12669151
N       0.31666444     -1.04681441      0.27376718
H      -3.44598612     -0.17934704     -0.75750480
H      -2.01211506     -1.34415786     -0.84074120
H      -2.12560487      1.39123497      0.52834856
H      -0.17301975      0.44883553      1.68427340
H       0.34503391      1.52579186     -1.10164285
H       1.00616430      2.09260863      0.43232483
H       2.29590712     -1.65884615     -0.24386347
H       0.13859295     -1.81549250      0.90162022
