16
b3lypvtz=-181119.99043354
C      -3.00283287     -0.50339853      0.21525964
C      -1.91978390      0.02987764     -0.33851321
C      -0.60339984      0.10748208      0.32048151
C       0.30427101      1.29578531      0.17027291
N       0.58918000      0.06877391     -0.53322948
C       1.68154006     -0.73505048     -0.18919436
C       2.89258721     -0.30681434      0.16251476
H      -2.97939555     -0.93448423      1.20927722
H      -3.95090002     -0.52617070     -0.30437577
H      -1.96526745      0.44784259     -1.33904919
H      -0.52441321     -0.40643832      1.27448584
H      -0.00752088      2.13368639     -0.44126597
H       0.92303992      1.54845320      1.02509810
H       1.47774913     -1.79462574     -0.30037153
H       3.69185749     -1.01293504      0.33161461
H       3.12513692      0.74531825      0.25865692
