16
b3lypvtz=-204431.2058556
C       2.91663658     -0.49938979     -0.71545021
C       1.64785811     -0.49950394     -0.30056785
N       0.60679060      0.25871227     -0.81425481
C      -0.49942534      0.61258063      0.02264402
C      -1.83908175      0.84090558     -0.63745471
C      -1.62636386     -0.37728151      0.19498832
O      -2.32617755     -0.41970443      1.40712834
H       3.63020064     -1.18527897     -0.28623652
H       3.26606126      0.16110365     -1.49933118
H       1.33429601     -1.17215135      0.49061165
H       0.89024784      0.98004987     -1.46182296
H      -0.29567911      1.23003500      0.89528784
H      -1.89767974      0.71695270     -1.70943630
H      -2.46937837      1.61135818     -0.21725495
H      -1.52341444     -1.32422920     -0.32497783
H      -1.81479088     -0.93405869      2.04042715
