16
b3lypvtz=-204425.4894451
N       0.02424136      0.77475869     -1.73440996
C      -0.06149539      0.32603849     -0.38135047
C      -1.26490582      0.32759644      0.56481389
C      -0.75277093     -1.01440634      1.18266642
C       0.42428824     -1.01269712      0.20692493
C       1.23355668      0.24028448      0.38498609
O       2.39014268      0.36667848     -0.38412252
H      -0.17761492      1.76529918     -1.81509552
H      -0.60006888      0.27189792     -2.35253356
H      -1.35352711      1.18519664      1.23621663
H      -2.20968070      0.19683968      0.03614896
H      -1.44831919     -1.83709399      1.02837130
H      -0.48111935     -0.98044998      2.23959757
H       0.85501822     -1.86679354     -0.29707715
H       1.33548557      0.69052284      1.36957213
H       2.08676956      0.56612814     -1.28480874
