18
b3lypvtz=-205211.44755236
C       2.71841920     -0.67841825     -0.43628872
C       1.66120646      0.00716066      0.01093039
N       1.64623812      1.37189270      0.27903235
C       0.38018254     -0.68407163      0.39251478
O      -0.72035651      0.03608670     -0.14720140
C      -1.97942813     -0.48102798      0.25387389
C      -3.07444971      0.36443825     -0.36341144
H       3.66149682     -0.19435637     -0.65451332
H       2.66669780     -1.74872318     -0.56446545
H       0.74192219      1.79541532      0.13236143
H       2.38948837      1.89797330     -0.15342323
H       0.38816538     -1.71432858      0.02329670
H       0.29246765     -0.71244840      1.48856293
H      -2.05247433     -0.47202011      1.35010980
H      -2.07076065     -1.52655333     -0.07029869
H      -4.05490070     -0.01822753     -0.07572566
H      -3.00386367      0.34944884     -1.45123759
H      -2.99796883      1.39946960     -0.02848579
