16
b3lypvtz=-225364.55448522
N      -2.87382016      0.24324474      0.26056346
C      -1.46130182      0.52965195      0.53138737
C      -0.60231051      0.10326217     -0.66032079
N       0.78427126      0.49734280     -0.47168389
C       1.65689127     -0.36822762     -0.19564047
N       3.01975247     -0.07247129     -0.16376319
O       1.39049437     -1.68797967      0.05912687
H      -3.22691168      0.86952760     -0.45453679
H      -3.43348974      0.40984873      1.08792262
H      -1.24945735      1.58367090      0.75452362
H      -1.16039048     -0.04958614      1.40718771
H      -0.97181842      0.61973736     -1.55230824
H      -0.73014636     -0.96952536     -0.82243790
H       3.18010072      0.91461748     -0.30248080
H       3.49889700     -0.41545572      0.65796584
H       2.17923943     -2.20755795     -0.13530541
