15
b3lypvtz=-214505.51921675
C      -0.68511179     -0.81184500     -0.69703182
C      -0.84829618     -0.34343293      0.70747617
C       0.22507879      0.29381429     -0.16635534
C       1.62949320     -0.07168733      0.15449314
N       2.00221469     -1.27521392      0.30706075
N       0.04012890      1.66876489     -0.54587581
O      -1.92393954      0.48047613      1.06296812
H      -1.42974107     -0.49467782     -1.41551521
H      -0.23272839     -1.78077261     -0.85713259
H      -0.48473081     -0.98576356      1.50154972
H       2.28764727      0.79663684      0.25971585
H       2.98819907     -1.32585233      0.55443027
H      -0.00743543      1.78098274     -1.55022090
H      -0.81578344      2.03154696     -0.14438993
H      -2.74499529      0.03702364      0.82882758
