16
b3lypvtz=-204460.12277855
C       0.59790901     -1.90657137     -0.25029714
C       0.38186404     -0.41976485     -0.23582368
C       0.94971062      0.37074886      0.69147792
N       0.85425111      1.74945866      0.76785491
C      -0.49442544      0.18841594     -1.31956199
C      -1.77633510      0.61860163     -0.65762294
O      -2.00504226      1.75144176     -0.29470231
H      -0.34062528     -2.46124692     -0.15102665
H       1.05611605     -2.23467171     -1.18975105
H       1.24970295     -2.22092395      0.56573262
H       1.60676236     -0.07386428      1.43036466
H       1.12573667      2.15197322      1.64867519
H       0.01656999      2.17090110      0.38962866
H      -0.02087714      1.06003226     -1.77872259
H      -0.70202437     -0.55239069     -2.09387701
H      -2.49929320     -0.19223964     -0.43804859
