18
b3lypvtz=-205217.2808867
C      -2.44677164     -0.46034775     -0.35950985
C      -1.18067511     -0.13666024      0.41186663
C       0.02191423     -1.03209419      0.10679512
C       1.20994760     -0.10184398      0.35529977
N       2.41669079     -0.51315656     -0.36141360
C       0.65074513      1.22256114     -0.17252243
O      -0.75037342      1.20387436      0.09463120
H      -2.25720945     -0.43925188     -1.43387281
H      -3.22611577      0.26806851     -0.13407149
H      -2.81829317     -1.45155203     -0.08997266
H      -1.40050718     -0.16699674      1.48675473
H       0.02516650     -1.33257338     -0.94410641
H       0.03861840     -1.93186272      0.72314435
H       1.36475629     -0.00968945      1.43982696
H       2.73799994     -1.41262570     -0.02180362
H       3.17267323      0.14022593     -0.18771375
H       0.83800278      1.28919781     -1.25054340
H       1.08606385      2.09965188      0.31216027
