16
b3lypvtz=-181123.48680338
C      -2.06479275     -0.54993169      0.04648452
C      -0.58725260     -0.89542198     -0.11820644
C       0.36726356      0.18084753      0.46225266
C       1.80426069     -0.28868398      0.35769175
N       2.43746340     -0.67462158      1.38081364
C       0.21391325      1.47416189     -0.20319550
C       0.11076497      2.52811671     -0.76776928
H      -2.31386801      0.38072045     -0.46385144
H      -2.69199670     -1.34017997     -0.36808826
H      -2.32629085     -0.43521983      1.10033544
H      -0.35263913     -1.04215605     -1.17545365
H      -0.36398507     -1.83435570      0.39246960
H       0.15208577      0.29695655      1.52778296
H       2.22210622     -0.28309585     -0.65540647
H       3.37863841     -0.98276618      1.13712431
H       0.01432884      3.46562970     -1.25589734
