16
b3lypvtz=-204430.64362594
C      -2.56831906      0.48543409      0.09681365
C      -1.07874638      0.47661431     -0.09854315
O      -0.60485683      0.15982952     -1.42278313
C      -0.32452463     -0.75146343     -0.35669685
C       1.12977912     -0.95338705      0.01327027
N       1.80808738      0.29216012      0.31688976
C       2.75430298      0.64802320     -0.43487378
H      -3.00383932      1.39402794     -0.32340623
H      -3.03190189     -0.37231135     -0.39087830
H      -2.81393182      0.45822372      1.16081962
H      -0.53221659      1.29249364      0.36302420
H      -0.88336640     -1.68375694     -0.41854480
H       1.62137680     -1.50912810     -0.79978599
H       1.15952223     -1.58095661      0.90935152
H       3.27255311      1.58323313     -0.23440466
H       3.09598127      0.06086379     -1.29595214
