14
b3lypvtz=-180327.93671807
C       2.88175951      0.75653394     -0.73273257
C       1.72880928      0.49874571     -0.51391855
C       0.36447942      0.18827720     -0.23774152
C      -0.06689315     -1.07283376      0.47486170
C      -0.59872143     -0.80978560     -0.89996293
C      -1.65955806      0.28254311     -0.84861827
N      -0.67852966      1.22698054     -0.23061203
H       3.89701744      0.98885275     -0.93602569
H      -0.71887121     -0.99120799      1.33888770
H       0.68832497     -1.84400278      0.54277398
H      -0.39521374     -1.46150583     -1.73569525
H      -1.97715308      0.63997849     -1.82824040
H      -2.54316827      0.05473701     -0.24624276
H      -0.92228203      1.54268721      0.70326659
