13
b3lypvtz=-192840.72244574
C       1.79323160     -1.91778961      0.00007192
C       0.93925632     -1.07091117      0.00005111
C      -0.12369720     -0.12336229      0.00002298
C      -1.51593768     -0.67480839      0.00000795
O      -2.51649755     -0.00056658     -0.00002668
C       0.05185351      1.21163046      0.00000680
C       1.34710936      1.93737246      0.00001321
H       2.55562992     -2.65649045      0.00009853
H      -1.57058672     -1.77938890      0.00000621
H      -0.85674952      1.80473982     -0.00001302
H       2.20165165      1.26412608      0.00003000
H       1.41241680      2.59245548     -0.87397836
H       1.41239751      2.59247409      0.87399236
