15
b3lypvtz=-219530.75308554
C       2.07225566     -0.96485498     -0.00121435
C       1.18792615      0.04180608      0.00059725
C       1.63554823      1.48217109      0.00180681
C      -0.23861421     -0.20829159      0.00510727
F      -0.60641887     -1.53008884      0.00565048
C      -1.24181706      0.68240606      0.00474752
N      -2.58412910      0.35492748     -0.07280288
H       1.75684255     -1.99743192     -0.00404926
H       3.13493776     -0.76643163     -0.00048823
H       1.27090565      2.01514106     -0.87944870
H       1.26685979      2.01521521      0.88150719
H       2.72220443      1.53950856      0.00462948
H      -1.01026001      1.73624718      0.00484509
H      -2.80065521     -0.60759290      0.13510934
H      -3.21791876      1.00344816      0.36408600
