11
b3lypvtz=-231441.53887328
N      -2.98279762     -0.55008903      0.00016265
N      -1.74828842     -0.46189666      0.00018847
N      -1.34217387      0.88103132     -0.00003595
C      -0.05817938      0.97540313     -0.00001125
N       0.84885590     -0.04101243      0.00001854
N       2.16841143      0.24997571     -0.00002824
N       2.88025177     -0.76846961      0.00001389
H      -3.18345955     -1.55758735      0.00017979
H       0.38994534      1.96174704     -0.00005729
H       0.55466469     -1.01303146      0.00008022
H       3.84643471     -0.43405065     -0.00000783
