19
b3lypvtz=-171835.16845332
C       2.18417906      0.17739096     -0.00000013
C       0.68140492      0.03947612     -0.00000006
C      -0.15666283      1.33597455      0.00000095
C      -1.59232237      0.72451115      0.00000007
C      -1.21579417     -0.76711448     -0.00000023
C      -0.08256606     -0.81354072     -1.05899218
C      -0.08256580     -0.81354160      1.05899144
H       2.67484757     -0.79806238     -0.00000356
H       2.52908094      0.72425248      0.88155756
H       2.52908042      0.72425849     -0.88155429
H       0.04223400      1.94782267     -0.88170778
H       0.04223351      1.94782062      0.88171123
H      -2.16965936      1.00557542     -0.88173433
H      -2.16966066      1.00557519      0.88173367
H      -2.02917992     -1.48943908     -0.00000045
H       0.34600541     -1.80915737     -1.17356110
H      -0.27203544     -0.36916501     -2.03854793
H      -0.27203477     -0.36916660      2.03854759
H       0.34600554     -1.80915841      1.17355952
