16
b3lypvtz=-204389.36048674
O       2.48497630      0.38464638     -0.68218293
C       1.58238232     -0.53530921     -0.06572360
C       0.18897931     -0.07555696     -0.43162348
C      -0.64069436      0.94391403      0.38587556
C      -1.84114128      0.30547744     -0.33933747
N      -1.00601304     -0.93285846      0.04677480
C      -0.84456072     -0.20034853      1.39651858
H       3.38496677      0.10306078     -0.49719302
H       1.74763128     -0.56731329      1.01426048
H       1.72033771     -1.55045705     -0.45787978
H       0.16306919      0.07168446     -1.51338452
H      -0.43286069      2.00044624      0.57221638
H      -2.81248166      0.33615280      0.15334574
H      -1.93070282      0.45088564     -1.41574988
H      -1.75946764     -0.19298707      1.98887028
H      -0.00432067     -0.54133718      1.99561285
