15
b3lypvtz=-191182.82877367
N       2.04729365     -1.40635594      0.17686288
C       1.20009581     -0.48629656      0.30015441
C       1.07593682      1.01512930      0.03126681
N      -0.32975183      0.99840797      0.54731977
C      -1.33119045      0.68240683     -0.52750406
C      -1.34505676     -0.82014828     -0.15116585
C      -0.21464748     -0.49348947      0.84837477
H       2.91524180     -1.06459910     -0.23963815
H       1.18333599      1.33129466     -1.00989587
H       1.73124956      1.63026773      0.65223815
H      -0.97175200      0.90599944     -1.53481569
H      -2.27253413      1.20890674     -0.37422862
H      -1.09513282     -1.53261521     -0.93493599
H      -2.26293534     -1.14178811      0.33648856
H      -0.33015281     -0.82722001      1.87947889
