14
b3lypvtz=-227007.32145157
C      -0.58826336     -0.67563581      0.46632457
C       0.45079686      0.26664889     -0.12254496
O       1.75145085     -0.20502036      0.30011701
C       2.80174292      0.52756024     -0.09480568
O       2.75534143      1.52874540     -0.75321025
C      -1.98387512     -0.19030182      0.19843620
N      -2.79673681     -0.86417607     -0.49904269
H      -0.43123928     -0.73150703      1.54810770
H      -0.47626753     -1.67650561      0.05157285
H       0.31897840      1.29245210      0.22516170
H       0.41418205      0.27477120     -1.21194120
H       3.72233909      0.06440120      0.28305773
H      -2.24185229      0.77870479      0.64507491
H      -3.69659720     -0.39013715     -0.57656432
