14
b3lypvtz=-222191.35315071
N      -1.61936572     -1.73698903      0.06601455
C      -1.27631104     -0.54538704     -0.23380848
N      -2.10047266      0.49426365     -0.65372018
N       0.07957891     -0.23940915     -0.19932595
C       0.71659566      0.89280583     -0.66128839
N       1.97772197      1.08604032     -0.67953608
N       2.74776243      0.01197056     -0.16681722
H      -2.62800915     -1.85139272      0.07300820
H      -1.86743003      1.41521881     -0.31385045
H      -3.08264800      0.29279012     -0.55834945
H       0.64300315     -0.94778331      0.24458809
H       0.09051383      1.68026763     -1.05689141
H       3.71630744      0.27637047     -0.28471469
H       2.60265320     -0.82886613     -0.72520855
