17
b3lypvtz=-215278.44655013
C      -2.86005114      0.04728454     -0.13868876
C      -1.41378867      0.52911210     -0.10197814
N      -0.52659633     -0.53851795      0.33148533
C       0.84056064     -0.56895252      0.02132274
O       1.33786203     -1.85928671     -0.05197162
C       1.68793449      0.44577355     -0.18354431
N       1.51838970      1.79958037      0.18593489
H      -3.52609806      0.85135482     -0.45565488
H      -3.18827340     -0.28188243      0.84998860
H      -2.97094653     -0.79064053     -0.82717858
H      -1.09268349      0.83250785     -1.09913599
H      -1.36080479      1.42483534      0.53452136
H      -0.75603760     -0.92695654      1.23774868
H       0.64039625     -2.40361001     -0.43834186
H       2.66574030      0.19966873     -0.57424711
H       1.73629034      2.44499333     -0.56192925
H       0.60479524      2.01278805      0.55436091
