18
b3lypvtz=-181927.64172529
C       2.39566613     -1.12360139     -0.04314552
C       1.39015907     -0.02647914      0.32017515
C       1.81699458      1.31719618     -0.28038404
C      -0.02300943     -0.44667051     -0.11194232
C      -1.13282615      0.50038387      0.38053417
C      -2.46704053      0.03145864      0.01965470
N      -3.51104422     -0.35365342     -0.27329061
H       2.12788812     -2.07764592      0.41428786
H       3.40044449     -0.86140753      0.29192023
H       2.43575412     -1.27241514     -1.12519021
H       1.38717001      0.07581659      1.41180062
H       2.82960305      1.57539919      0.03347516
H       1.81039916      1.27352170     -1.37272452
H       1.16590648      2.13736667      0.02514556
H      -0.06851609     -0.51351775     -1.20231961
H      -0.23218276     -1.44865415      0.26838831
H      -1.08936678      0.59905529      1.46838128
H      -1.00554227      1.50224181     -0.03310623
