15
b3lypvtz=-191181.46783112
N       2.84855647     -0.25658682      0.82643541
C       2.12437337     -0.39749659     -0.20088861
C       0.68838741     -0.01504883     -0.33751495
C      -0.33972874     -0.79868856      0.39411647
C      -1.74771373     -0.33779262      0.04513946
C      -1.27071243      1.08326021      0.44238963
N       0.08348230      0.57477970      0.86342574
H       2.30179405      0.19928699      1.56347353
H       2.56624053     -0.85548048     -1.08899891
H       0.41407919      0.39333791     -1.30778398
H      -0.07440585     -1.69162546      0.94603432
H      -2.50438170     -0.72869725      0.72210023
H      -2.07430053     -0.50302502     -0.98198431
H      -1.79245547      1.49918431      1.30091289
H      -1.22311486      1.83479251     -0.34715693
