14
b3lypvtz=-229592.54588821
C       2.91207830     -0.29390338      0.06904408
N       1.73303777     -0.78456822      0.00311327
C       0.62620626     -0.01343141     -0.02699884
F       0.76221002      1.36160939      0.00892303
C      -0.62861840     -0.49826005     -0.10029203
N      -1.76051032      0.25952183     -0.19971693
C      -3.05591701     -0.28231654      0.16373438
H       3.11709675      0.77488218      0.10050560
H       3.75283261     -0.97799388      0.09465426
H      -0.74677034     -1.57141259     -0.12310972
H      -1.62935091      1.24589506     -0.03998533
H      -3.18314033     -1.26233468     -0.29707811
H      -3.84110211      0.36843716     -0.21832159
H      -3.19268430     -0.39352187      1.24604294
