16
b3lypvtz=-181143.51809805
C       2.06843806      0.44862097     -0.43803745
C       0.69263668      0.10738798      0.07492255
C      -0.28881854      1.19087962      0.38925965
N      -1.51283195      0.95648343      0.13904677
C      -1.61455478     -0.38466773     -0.47141927
C      -0.21494121     -0.98604732     -0.46038405
C       0.43708774     -1.15027469      0.88237502
H       2.64494832      0.99378008      0.31349628
H       2.01847607      1.06862951     -1.33585587
H       2.62683193     -0.45470389     -0.68673826
H       0.01466066      2.14252853      0.82041886
H      -2.00958722     -0.27414898     -1.48462300
H      -2.34163764     -0.97620793      0.09023551
H       0.10365386     -1.62343509     -1.27354381
H       1.25747404     -1.85312649      0.95027639
H      -0.17352903     -1.08158798      1.77421268
