17
b3lypvtz=-191949.08600764
C       3.32738368     -0.17511586      0.14354549
N       2.28139274      0.41272695      0.52820778
C       1.06128676      0.21771468     -0.23516881
C      -0.05517695     -0.29220721      0.67535358
N      -1.29837854     -0.42311761     -0.07398560
C      -2.52199033     -0.46638534      0.71468594
C      -2.17656202      0.74279071     -0.07696775
H       3.36579687     -0.82379781     -0.74105606
H       4.25153643     -0.04427760      0.70275126
H       1.19231113     -0.47035864     -1.08090706
H       0.76444390      1.19059290     -0.63784745
H      -0.15123666      0.38317285      1.53827575
H       0.21376569     -1.27824826      1.06175604
H      -3.28407072     -1.15205558      0.36616866
H      -2.43194713     -0.39281208      1.79417057
H      -1.85446899      1.61999317      0.47628003
H      -2.68408588      0.95138473     -1.01020177
