16
b3lypvtz=-202077.0376487
C       2.40652186     -0.90302108     -0.00002767
C       1.20959185      0.01754299      0.00000388
N       1.30066350      1.30406295      0.00004920
N       0.01486456     -0.68423620     -0.00001764
C      -1.13920499     -0.07546835      0.00003697
C      -2.38382452     -0.92284759      0.00007279
N      -1.32238555      1.25455539     -0.00000825
H       3.34538601     -0.35049658      0.00005460
H       2.37025920     -1.55330686     -0.87540236
H       2.37018969     -1.55345867      0.87523020
H       2.27185361      1.60210527      0.00008614
H      -2.10673225     -1.97197565      0.00030596
H      -2.99304800     -0.71148350     -0.88176227
H      -2.99326446     -0.71113621      0.88167536
H      -2.24687255      1.64611057      0.00038652
H      -0.47711695      1.82772252      0.00014958
