13
b3lypvtz=-239468.12330295
C      -1.13150131     -0.72874619     -0.99234803
C      -0.44955818     -0.29145717      0.06437203
C      -1.11064003     -0.18248459      1.39676094
O      -2.27650159     -0.42229803      1.60324738
C       0.99983107      0.13103752      0.02042722
O       1.15232957      1.47651608      0.44067245
O       1.50227878     -0.07387969     -1.27431932
H      -2.17599851     -0.98930012     -0.88174643
H      -0.66508802     -0.83431712     -1.96046131
H      -0.44916130      0.14073152      2.22265626
H       1.58053005     -0.43642390      0.75654155
H       0.59329624      2.02641050     -0.12304702
H       2.43008321      0.18421120     -1.27265572
