14
b3lypvtz=-226995.80905608
C      -1.31178112     -0.97489309      0.05919424
C       0.13260651     -1.00260384     -0.34664915
C       0.93428516      0.04062117     -0.09399165
O       0.46060545      1.20824393      0.43280150
C      -0.96038146      1.31396383      0.32396217
O      -1.60519425      0.19581687      0.83451027
N       2.29421117      0.13670030     -0.35842669
H      -1.56526263     -1.81693761      0.70667773
H      -1.98701259     -1.01552724     -0.80805363
H       0.52763763     -1.88871877     -0.82218371
H      -1.24720025      2.17339335      0.92333301
H      -1.20583022      1.46720962     -0.73509843
H       2.79900093     -0.72975787     -0.26061414
H       2.73431570      0.89248935      0.14453849
