16
b3lypvtz=-227731.49768687
C      -1.34780481      1.21151764      0.32253805
C      -0.69730153      0.18019165     -0.59154961
O      -1.65758977     -0.41658287     -1.46226036
C       0.07222497     -0.91604973      0.17782734
C       1.22646281     -0.39385571      0.97995973
N       2.39824765     -0.13063459      0.56035881
O       2.53684226     -0.38964954     -0.81706665
H      -1.89260503      1.94584349     -0.27035480
H      -2.05449498      0.73224311      1.00724430
H      -0.60431478      1.73799626      0.92317076
H       0.00560952      0.67739343     -1.26014660
H      -2.35824404     -0.80341461     -0.92585260
H      -0.62369158     -1.42941393      0.84768767
H       0.43424473     -1.63565614     -0.55564331
H       1.10060494     -0.19306668      2.03870044
H       3.46180964     -0.17686179     -0.97451318
