15
b3lypvtz=-191239.66700049
N       2.13467433      0.69542654      0.59788326
C       1.49900839     -0.12952244     -0.44210596
C       0.02135297     -0.19426217     -0.22802901
C      -0.89724935     -1.19848707     -0.43792367
C      -2.18198331     -0.68066638     -0.11536127
C      -2.00841795      0.62112130      0.28817202
N      -0.67025050      0.90573200      0.20762682
H      -0.21373067      1.75225835      0.50074769
H       2.11140962      0.21394873      1.48987756
H       3.10794899      0.86238624      0.37351085
H       1.88563410     -1.15374416     -0.50649571
H       1.72134812      0.34811019     -1.40253381
H      -0.67127853     -2.19137652     -0.79079458
H      -3.12139714     -1.20478033     -0.16711272
H      -2.71706905      1.35395573      0.63263852
