16
b3lypvtz=-204461.27829332
C       3.20676747      0.19972288     -0.22284909
N       1.94721593     -0.51811704     -0.23354517
C       0.96253952     -0.00535115      0.36547771
C      -0.36881128     -0.69397900      0.40065311
C      -1.53928316      0.19892957      0.00047504
C      -2.83792261     -0.51175352     -0.30753164
O      -1.43671858      1.40236404     -0.05782489
H       3.51112753      0.40080827     -1.25188948
H       3.16980555      1.14775741      0.32939246
H       3.97745661     -0.43723880      0.21596580
H       1.02409308      0.96189289      0.87739149
H      -0.33761582     -1.59036185     -0.22056966
H      -0.58157376     -1.03529503      1.42315512
H      -2.73256997     -1.07043009     -1.24123528
H      -3.08104444     -1.23799435      0.47096257
H      -3.64252506      0.21190077     -0.41112110
