18
b3lypvtz=-181885.18756556
C       1.66522951     -0.94953766      0.31564791
C       0.71630090      0.22767757      0.45016327
C       0.73695681      1.34909650     -0.63019532
C      -0.81595024      1.39733901     -0.59208323
C      -0.78143963      0.05823491      0.14201753
C      -1.47781357     -1.19173699     -0.22222851
N      -1.83658569     -0.44955475      1.00699379
H       1.59786697     -1.39937975     -0.67680611
H       1.44815390     -1.72789881      1.05194741
H       2.69974850     -0.63583412      0.47160322
H       0.82335979      0.67741375      1.44251434
H       1.11216911      0.97656236     -1.58402763
H       1.26844488      2.26521282     -0.37816109
H      -1.19683562      2.19499856      0.04686168
H      -1.33963471      1.42865778     -1.54681809
H      -0.94490218     -2.13048465     -0.12344158
H      -2.23842835     -1.18205738     -0.99426584
H      -1.43664039     -0.90870918      1.82027825
