16
b3lypvtz=-181084.02978577
C       0.44619803     -0.09956107      0.15490503
C       0.19279333      0.08925140      1.61844587
N       0.51900232      1.36273220      2.35099342
C      -0.05816607      0.45693084      3.39460259
C       0.68338779     -0.78426277      2.82336733
C      -0.59537550     -1.64209847      2.82556098
C      -1.10024634     -0.23503256      2.45882138
H      -0.16747111      0.58040017     -0.44038119
H       0.21171091     -1.12058847     -0.15202111
H       1.49426560      0.09802996     -0.07583461
H      -0.15166123      2.09472116      2.10530296
H      -0.17419782      0.74028753      4.43905898
H       1.71570210     -1.06035223      3.02855282
H      -0.67455530     -2.41220849      2.05680669
H      -0.91269376     -2.03784639      3.79152783
H      -2.11339295      0.10829720      2.24709103
