18
b3lypvtz=-181904.81873509
C      -2.52035436     -0.77825809     -0.22747318
N      -1.27133357     -0.66824789     -0.38016257
C      -0.57582081      0.41336734      0.19192330
C      -0.89575049      1.68271766     -0.07495512
C       0.60609261      0.00215720      1.03438593
C       1.69758288     -0.76327087      0.26417436
C       2.40737579      0.07456553     -0.79763158
H      -3.04568355     -1.59811755     -0.71169181
H      -3.11009984     -0.08072878      0.37650823
H      -0.30121991      2.49705702      0.31391383
H      -1.72227536      1.93166280     -0.72631112
H       0.24393266     -0.63467178      1.84797084
H       1.03305100      0.89571837      1.49458090
H       1.24949935     -1.64393383     -0.19865034
H       2.42908320     -1.12745357      0.99034277
H       1.70988374      0.42930417     -1.55740698
H       2.88810393      0.95044016     -0.35455094
H       3.18039574     -0.50808187     -1.30134753
