11
b3lypvtz=-264619.12873771
C      -0.56969042     -0.51035876     -0.00223464
C      -1.84596533     -0.19013407     -0.25803401
O      -2.30673844      1.02671114     -0.53436322
F      -2.81957555     -1.08750292     -0.26241950
N       0.33264378      0.55250385     -0.03672061
C       1.56562098      0.39631734      0.18570729
O       2.13259413     -0.80889955      0.47801577
H      -0.28523103     -1.52945244      0.21303217
H      -1.52417447      1.60558138     -0.50707707
H       2.24114998      1.24559955      0.15085263
H       3.07936637     -0.70036550      0.61067128
