11
b3lypvtz=-267213.96895383
N      -0.44716634     -1.75284538     -0.21946763
C      -0.74008750     -0.55725739     -0.01727046
F      -2.02692181     -0.16419081      0.26774705
C       0.16512605      0.60596338     -0.02175445
N      -0.45288443      1.85898297     -0.19215330
C       1.49559688      0.48391733      0.06933084
F       2.13628104     -0.68815333      0.10933677
H      -1.25887019     -2.36069455     -0.13209391
H      -1.30128267      1.96056990      0.34498881
H       0.16784622      2.63909768     -0.03429565
H       2.16685775      1.33261821      0.09398694
