16
b3lypvtz=-202061.11826046
C       2.69435103     -0.85391923     -0.00463942
C       1.44920262     -0.01265817      0.00384605
N       1.67892146      1.36183737     -0.01960769
N       0.30241805     -0.58057141     -0.01773883
C      -0.87849582      0.15228513     -0.06113016
C      -2.06366714     -0.46803219      0.06128526
N      -3.31647844      0.11818042     -0.07586208
H       3.29481107     -0.67874897      0.89351515
H       3.32115873     -0.61309385     -0.86767312
H       2.41886683     -1.90320371     -0.04730781
H       0.94419553      1.94888404      0.34040339
H       2.59444680      1.65807430      0.27611209
H      -0.86947165      1.22795896     -0.25032864
H      -2.07371384     -1.53939435      0.21791111
H      -4.04970294     -0.30494115      0.47020165
H      -3.33603528      1.12475982     -0.01170795
