17
b3lypvtz=-191978.3494476
C       2.17882592      0.71584177     -0.48478643
C       1.20728844     -0.07496514     -0.01156814
N       1.40978145     -1.42097805      0.32426322
C      -0.21057224      0.37144618      0.09336857
C      -0.53495563      1.62831993      0.44289903
N      -1.13446978     -0.63990552     -0.13260183
C      -2.54603179     -0.34532509     -0.22929013
H       3.20843497      0.38339983     -0.51575873
H       1.95309955      1.69392516     -0.87662493
H       0.87799826     -1.73833463      1.12140701
H       2.37941847     -1.69238887      0.38044347
H      -1.55785518      1.96976015      0.48168164
H       0.23706246      2.32561412      0.72351102
H      -0.79906116     -1.37678277     -0.73160556
H      -3.08555350     -1.26314649     -0.45708130
H      -2.91774303      0.03818241      0.72328428
H      -2.77806321      0.39910201     -1.00191120
