17
b3lypvtz=-191938.99822809
C      -1.91023011      1.02670107      0.20579098
C      -2.12744260     -0.43540022      0.06798544
N      -0.88761495      0.17835187     -0.40192101
C       0.29121694     -0.07181452      0.39920941
C       1.20365907     -1.23200538     -0.05678401
N       2.37918759     -0.35586744      0.18220955
C       1.50730291      0.84615960      0.14462275
H      -2.40284850      1.72021742     -0.46352714
H      -1.72349341      1.40826716      1.20480160
H      -2.78064755     -0.82290653     -0.70323481
H      -2.08589541     -1.03045513      0.97496390
H       0.05984024     -0.14189286      1.47067904
H       1.19511881     -2.15067907      0.53227295
H       1.01946169     -1.47088690     -1.10903844
H       3.09164722     -0.39030954     -0.53570828
H       1.74322522      1.60180686      0.89590062
H       1.42751287      1.32071360     -0.83857646
