10
b3lypvtz=-225458.18388115
C       2.57975795      0.12797131     -0.03605318
C       1.48258168     -0.16921456      0.34907942
C       0.19313532     -0.56702968      0.84013066
O       0.03293591     -1.49696754      1.61001310
C      -1.02439603      0.20761522      0.37741269
N      -0.90699196      1.17923013     -0.41954240
O      -2.16693192     -0.26216724      0.90571048
H       3.54715217      0.39832951     -0.38252131
H      -1.81303602      1.59541817     -0.63486614
H      -1.92420709     -1.01318532      1.47824193
