13
b3lypvtz=-242052.77568941
C      -1.53640261      1.66493141     -0.08897103
C      -0.77992387      0.64708347     -0.49723764
N      -1.16180198     -0.41067391     -1.30915463
O       0.57479877      0.64877366     -0.20348557
C       1.05065076     -0.45245359      0.46509903
C       2.21612498     -0.98333180      0.12820809
F       2.74736283     -1.98801960      0.85084143
H      -2.57577698      1.73346926     -0.37216121
H      -1.09926436      2.45671525      0.49597196
H      -2.14841091     -0.61182607     -1.31463267
H      -0.59302695     -1.23947694     -1.23069356
H       0.47115347     -0.80881255      1.30998953
H       2.83451683     -0.65637861     -0.69507867
