17
b3lypvtz=-194377.63070365
C       1.55276888      1.46259841     -0.15392411
C       1.52564249      0.13680921     -0.02538678
C       2.72587549     -0.74935750      0.06793225
O       0.37799406     -0.61787859      0.01968305
C      -0.82124236     -0.00021776      0.28195037
C      -1.95159356     -0.41517553     -0.27243544
C      -3.29829692      0.14413541      0.06518908
H       2.50137931      1.97638688     -0.17154229
H       0.65815260      2.05607517     -0.26391932
H       3.64366521     -0.17121001     -0.01034531
H       2.72679027     -1.29391532      1.01453691
H       2.70774761     -1.49251835     -0.73198489
H      -0.77049853      0.80051635      1.01263308
H      -1.90033929     -1.21553618     -1.00259095
H      -3.22616761      0.95095870      0.79571495
H      -3.79780502      0.53775333     -0.82398046
H      -3.95533166     -0.62507922      0.48053884
