15
b3lypvtz=-214546.20378094
C       2.17204104     -0.85340963      0.57144642
C       1.24397788     -0.13661244     -0.07331593
N       1.41862611      1.16679547     -0.53381642
N      -0.03471616     -0.66997871     -0.35472714
C      -1.29355417     -0.17961743     -0.03712784
C      -1.39302936      1.17830475      0.61816077
O      -2.27234663     -0.85801378     -0.28048672
H       3.19009544     -0.50191927      0.65489945
H       1.92021422     -1.79519607      1.03313682
H       2.34735875      1.53389181     -0.39548668
H       1.07611064      1.32590509     -1.47067818
H      -0.05948100     -1.64489342     -0.61233443
H      -1.22197282      1.97174637     -0.10888922
H      -2.39727147      1.27410927      1.02150523
H      -0.65211049      1.30178800      1.40706887
