18
b3lypvtz=-205219.77260759
C      -1.38318773      1.28435654      0.22615973
C      -0.55299694      0.18616766     -0.45450839
C      -1.39295497     -1.07077355     -0.72486984
C       0.68878580     -0.14773211      0.35835328
N       0.71986531     -0.62385911      1.53399330
C       2.02310883      0.11280397     -0.29919599
O       3.10943892     -0.22253116      0.51702495
H      -0.79464222      2.18838929      0.38747462
H      -1.75728047      0.95176041      1.19629119
H      -2.24444329      1.54619579     -0.39038399
H      -0.21185632      0.57445865     -1.41897544
H      -2.25493925     -0.82506261     -1.34691713
H      -1.76636743     -1.50289473      0.20547596
H      -0.81155164     -1.83708934     -1.23903229
H      -0.20499358     -0.78079594      1.93054827
H       2.06381256      1.17515687     -0.58143959
H       2.05656737     -0.45413016     -1.24123222
H       2.71343504     -0.55432049      1.34123359
