14
b3lypvtz=-208684.75913939
C       2.37667806     -1.20189186     -0.26923616
C       1.28289977     -0.75993256      0.34456133
C       0.64211585      0.55046672      0.10561619
C       1.37037521      1.67248164     -0.00045565
C      -0.81716129      0.61319390      0.02111104
C      -1.61905154     -0.44376031     -0.03263852
F      -2.95572660     -0.30279626     -0.10904720
H       2.80878051     -2.16238011     -0.02219647
H       2.86871813     -0.62403425     -1.04121652
H       0.80335910     -1.39643597      1.08236013
H       2.44518042      1.65758107      0.10853752
H       0.90256653      2.63058489     -0.18496815
H      -1.27424247      1.59523542     -0.01308730
H      -1.31895968     -1.48191131     -0.03114123
