16
b3lypvtz=-181108.47560959
C       2.54479124     -1.59607332     -0.24491671
C       1.71200948     -0.73880147     -0.34439296
C       0.67958973      0.29901513     -0.42852570
C      -0.49058349     -0.03017382      0.49237377
C      -1.85017515      0.53909599      0.18798515
C      -1.59215990     -0.93718216      0.02718770
N       1.29258020      1.61816769     -0.20161947
H       3.28578720     -2.35198467     -0.16906051
H       0.29808115      0.30257158     -1.45640914
H      -0.21455863     -0.10054597      1.53814310
H      -1.96328718      1.12959331     -0.71263399
H      -2.46666740      0.86808540      1.01288850
H      -2.03233343     -1.61840740      0.74156960
H      -1.52828139     -1.33032887     -0.97890593
H       0.56128815      2.31987614     -0.15984250
H       1.76391940      1.62709242      0.69615909
