14
b3lypvtz=-224601.55311553
N       2.84665104     -0.58375003     -0.76875324
C       1.60209518     -0.35943705     -0.69506598
N       0.86011388     -0.09560644      0.44970900
C      -0.50262092      0.15056694      0.53829720
N      -1.13490165      0.38698794      1.61605496
C      -1.31330411      0.13941695     -0.74744827
O      -2.66436648      0.40185507     -0.49929124
H       3.30557054     -0.55543621      0.14338446
H       1.01596196     -0.36588134     -1.60863336
H       1.37236353     -0.08114985      1.32080083
H      -0.55719133      0.38571974      2.45272041
H      -0.89951821      0.88890427     -1.43400238
H      -1.19799786     -0.83882004     -1.23124738
H      -2.73285556      0.52663006      0.46327498
