14
b3lypvtz=-229605.7905738
C       2.30743236     -0.37702152      0.22253071
C       1.31522839      0.71723403     -0.01709074
C      -0.02451985      0.66586653     -0.07085387
N      -0.83226304      1.82629802     -0.08761122
C      -0.84413107     -0.56751767      0.00922537
N      -2.03126543     -0.69912121      0.38629465
F      -0.20469953     -1.67104902     -0.42968246
H       1.84849757     -1.33185933      0.45544447
H       2.94682255     -0.51535585     -0.65455108
H       2.97061573     -0.10244172      1.04753791
H       1.75023184      1.70952316     -0.11094409
H      -1.51692170      1.82975699     -0.83316838
H      -0.29295326      2.67962833     -0.10689465
H      -2.38668656      0.19572326      0.71483239
