14
b3lypvtz=-226992.18497552
C       2.19188997      0.69518481      0.00002060
C       0.97860960     -0.17792257     -0.00002134
O       1.23154218     -1.53304443     -0.00009048
C      -0.30428671      0.23352961     -0.00002203
O      -0.69108465      1.55658766     -0.00002059
C      -1.43726258     -0.69342262      0.00000345
N      -2.66981454     -0.37439961      0.00002351
H       2.80709677      0.49833771      0.88383303
H       1.96508939      1.76033275      0.00015929
H       2.80704006      0.49853083     -0.88387291
H       2.18071595     -1.68059015      0.00006451
H       0.07543255      2.13459473     -0.00020343
H      -1.17355828     -1.74744924      0.00007015
H      -2.76865070      0.64271952     -0.00002476
