15
b3lypvtz=-214507.72314925
N      -0.60128661     -1.52925429     -0.73175537
C      -0.73281820     -0.51922738      0.29220666
C      -1.04859636      0.96546350     -0.03365714
N      -0.01564627      1.38339858      0.94850768
C       0.57562987      0.03843828      0.96053771
C       1.81354128     -0.14527423      0.12145733
O       2.31130590      0.72957926     -0.54586804
H      -1.48909105     -1.96878461     -0.93532054
H      -0.24247666     -1.14646419     -1.59841352
H      -1.39435970     -0.90249261      1.06644864
H      -2.05518004      1.32705948      0.18487106
H      -0.79887950      1.20610693     -1.07279583
H       0.62730759      2.08470602      0.59721552
H       0.79020359     -0.36565104      1.95697063
H       2.26014615     -1.15760372      0.15739519
