15
b3lypvtz=-214470.86763532
C      -2.05257226      0.92956615      0.30183786
C      -1.87137611     -0.52989953      0.09325582
N      -0.75933121      0.30298782      0.54371987
C       0.27896631      0.58488522     -0.44557191
C       1.34294153     -0.46730930     -0.41204664
N       2.55592919     -0.12834440     -0.27573132
O       3.40975434     -1.24329078     -0.29615744
H      -2.15823237      1.54709984     -0.58503463
H      -2.56612834      1.30028088      1.17956481
H      -1.85833964     -0.88395736     -0.93346685
H      -2.25080023     -1.24036714      0.81622668
H       0.73113778      1.55075020     -0.22016000
H      -0.14084790      0.64065200     -1.46523177
H       1.06171330     -1.51529179     -0.51212705
H       4.27718561     -0.84776183     -0.16391367
