9
b3lypvtz=-237935.61439474
C       2.13329924      0.74245498      0.24286138
C       1.25076796      0.01605119     -0.12524531
C       0.21883614     -0.88747504     -0.57276110
O       0.43592182     -2.02704442     -0.89558219
C      -1.23525465     -0.35006197     -0.63553952
O      -2.15971303     -1.01788358     -0.99344789
O      -1.31360617      0.93437565     -0.24338144
H       2.91284535      1.38685499      0.56884260
H      -2.24319666      1.20272820     -0.30694653
