21
b3lypvtz=-172598.58138137
C       3.25957776      0.01100578      0.22703617
C       1.88708640     -0.38510867     -0.31691579
C       0.77084174      0.57283490      0.10679842
C      -0.60449152      0.18422742     -0.41102625
C      -1.83980344      1.01361005      0.03316454
C      -2.65068325     -0.30376916      0.12217522
C      -1.30994838     -1.07970487      0.15841613
H       3.54812340      1.00672484     -0.11758666
H       4.03400169     -0.68802150     -0.09346471
H       3.26049076      0.02856935      1.31931141
H       1.92638171     -0.42878951     -1.40995582
H       1.64188726     -1.39746833      0.01785960
H       1.01312522      1.58388836     -0.24068904
H       0.73729335      0.62820698      1.20119632
H      -0.58040083      0.12446749     -1.50334561
H      -2.19945631      1.79065456     -0.64145486
H      -1.68282658      1.45588218      1.01911767
H      -3.32739346     -0.42468083      0.96737330
H      -3.20602811     -0.49948471     -0.79557489
H      -1.24254137     -2.00531767     -0.41275466
H      -0.98998306     -1.28044665      1.18327551
