16
b3lypvtz=-204432.22633661
C       3.33732136     -0.29179944     -0.08260585
N       2.07740367     -0.40395624      0.01861488
C       1.30022178      0.75454289     -0.04939799
C      -0.02530946      0.73353444      0.11483980
C      -0.84657329     -0.49219736      0.38068313
O      -1.99159793     -0.56975127     -0.46345506
C      -3.09542103      0.18909381     -0.01733137
H       3.84518671      0.67190869     -0.20895572
H       3.95731431     -1.18271880     -0.04424509
H       1.81347302      1.69857082     -0.24297068
H      -0.55605134      1.67622123      0.05007324
H      -0.25260654     -1.38351130      0.19382946
H      -1.16323126     -0.51296950      1.43372348
H      -3.90995014      0.01244465     -0.71798058
H      -3.41443915     -0.12185400      0.98578230
H      -2.88652870      1.26541939      0.00520805
