15
b3lypvtz=-191236.15701997
N       2.32005897     -0.18626743     -0.18035840
C       1.07182320     -0.03600485      0.03000994
C       0.20071569     -1.22700693      0.36218535
C      -1.19716256     -1.15031589     -0.26941972
C      -1.79753619      0.21226027     -0.05662610
C      -1.00209718      1.27304517      0.07720913
N       0.39224719      1.17337996      0.04804811
H       2.78775509      0.70369580     -0.35797614
H       0.09317087     -1.24759637      1.45177314
H       0.73845797     -2.12542690      0.06997129
H      -1.13552158     -1.36951642     -1.34240443
H      -1.83252810     -1.92667675      0.16049103
H      -2.86964735      0.34101915     -0.02682537
H      -1.38028887      2.27684351      0.21279231
H       0.93138785      2.01418067     -0.07321612
