16
b3lypvtz=-204448.62827336
N       2.03185658      0.11849781     -0.66141312
C       1.06936946      0.15716175      0.44654318
C       0.15066959      1.33810902      0.25904274
C      -1.13583880      1.18295747     -0.03281684
C      -1.75211390     -0.17034049     -0.23248473
O      -0.78750153     -1.20150473     -0.36394196
C       0.22286719     -1.10890663      0.63298193
H       2.71022487     -0.62145395     -0.51694181
H       1.54235336     -0.08801079     -1.52537219
H       1.64934345      0.30922062      1.36364124
H       0.58894206      2.32436059      0.34811179
H      -1.79088171      2.03977525     -0.14615150
H      -2.44100026     -0.39926103      0.59750140
H      -2.34334219     -0.18832577     -1.15035465
H       0.83673994     -2.00425749      0.52993316
H      -0.23262512     -1.11538063      1.63413637
