17
b3lypvtz=-194374.72873589
C       2.76329495     -0.74500924     -0.03694173
C       1.59852907     -0.25942793      0.36889065
O       0.49387112     -0.24951204     -0.43642464
C      -0.57072923      0.57488460     -0.07376252
C      -0.25428615      2.03787720     -0.03590825
C      -1.77443567      0.03786953      0.10722211
C      -2.11148080     -1.41813174      0.03865539
H       3.59521014     -0.78272555      0.64909878
H       2.89982394     -1.12106997     -1.04094739
H       1.43984404      0.11501458      1.37465507
H       0.51056160      2.26834639      0.70950630
H       0.13447406      2.36678550     -1.00302070
H      -1.14421161      2.61830259      0.20000347
H      -2.58740820      0.72612562      0.30677487
H      -1.22938534     -2.02418878     -0.15553884
H      -2.56647772     -1.75820757      0.97299615
H      -2.84010421     -1.61343020     -0.75316774
