17
b3lypvtz=-194383.53633336
C      -1.30300369      0.16405775      1.34702905
C      -0.60069412      0.02480518     -0.01664559
C      -1.64550002     -0.10613852     -1.13220456
C       0.37456047      1.16930892     -0.23535571
C       1.61605464      0.72204672     -0.09330886
O       1.72692170     -0.61829720      0.14748824
C       0.39615227     -1.16696956     -0.02616268
H      -1.97692047     -0.67753361      1.52798905
H      -1.89473632      1.08073848      1.38628274
H      -0.57418095      0.20086092      2.15759842
H      -2.25944618     -0.99959677     -0.99206530
H      -2.31592805      0.75553857     -1.13811771
H      -1.16931036     -0.16925814     -2.11125402
H       0.08738746      2.19504633     -0.40322582
H       2.55490540      1.25402730     -0.12322713
H       0.22350151     -1.88486200      0.77454253
H       0.37971270     -1.69040337     -0.98570466
