12
b3lypvtz=-221414.34641589
N       2.44248178     -0.16932589     -0.22695070
N       1.35270101     -0.64829174      0.10028397
C       0.27192870      0.33878561      0.07311316
N       0.42762212      1.58739822      0.16824727
C      -1.09023765     -0.28428099     -0.00020500
N      -1.30828981     -1.54163186      0.08527563
N      -2.09111375      0.61856603     -0.19330763
H       3.14253166     -0.91928098     -0.14594116
H       1.42325549      1.82265390      0.20066440
H      -0.43175216     -2.04091316      0.19664027
H      -3.03302884      0.28991266     -0.07259344
H      -1.88693455      1.58844721     -0.02533178
