19
b3lypvtz=-171810.56055007
C       3.11710279      0.00001613      0.10072397
C       1.71777882      0.00032182     -0.51212876
C       0.60338406     -0.00038945      0.54232691
C      -0.77391528     -0.00015749     -0.03897645
C      -1.71134808      1.13197583     -0.33518805
C      -2.13038683     -0.00003599      0.55106046
C      -1.71173647     -1.13185779     -0.33562120
H       3.27444939      0.88067298      0.72795607
H       3.27459168     -0.88158968      0.72655838
H       3.88960638      0.00069597     -0.66981677
H       1.59669071     -0.87356086     -1.15809706
H       1.59653828      0.87496378     -1.15704759
H       0.72000206     -0.87812079      1.18779166
H       0.71986669      0.87666318      1.18874544
H      -2.15940429      1.23107626     -1.32315382
H      -1.48885584      2.07771296      0.14875488
H      -2.44570256     -0.00018024      1.58060486
H      -2.15985160     -1.23047063     -1.32361356
H      -1.48960592     -2.07784801      0.14797762
