18
b3lypvtz=-181902.23636417836
C      -1.94272249      0.74474643      0.60485709
C      -1.30414745     -0.14252831     -0.46508556
C      -0.00188896     -0.80452542     -0.02452533
C       0.79298919     -1.63138534     -1.07646164
N       1.95169188     -0.70425774     -0.89173172
C       1.29219538     -0.00932961     -0.03445717
C       1.76527012      1.19832495      0.69485902
H      -2.16089968      0.17318120      1.50969335
H      -2.88089752      1.17409368      0.25024512
H      -1.28921629      1.57166560      0.88727043
H      -1.12236389      0.44074996     -1.37287737
H      -2.00956640     -0.93071908     -0.74581149
H      -0.16040807     -1.34512867      0.91405401
H       0.39371510     -1.60326020     -2.09166448
H       1.02674984     -2.66326832     -0.81013826
H       2.80228057      1.40462407      0.43210131
H       1.68956429      1.05565228      1.77568006
H       1.15765438      2.07136449      0.44399264
