15
b3lypvtz=-214490.1971736
C      -1.83941953     -0.71945647      0.32170099
C      -0.70570417      0.11183700     -0.22718050
C      -0.85621227      1.55347790     -0.42108184
O      -0.95685285      0.66760647     -1.54396681
C       0.65484335     -0.46825087     -0.05299192
N       1.62842014      0.22858002      0.37347600
N       2.84094736     -0.37568902      0.55167499
H      -1.82341271     -1.72305475     -0.10950499
H      -1.75829666     -0.81733362      1.40602766
H      -2.79704831     -0.26106343      0.07891692
H       0.02402180      2.18449353     -0.40377811
H      -1.78642301      2.02941454     -0.12525598
H       0.77459233     -1.52681737     -0.31224131
H       3.01569215     -1.18593331     -0.03685237
H       3.58485239      0.30218937      0.50105725
