14
b3lypvtz=-229607.3667772
C       2.52453794     -0.77751047     -0.02464916
C       1.34080307     -0.16396292      0.00720729
F       1.35934890      1.20910059      0.09264283
C       0.02956985     -0.74908067     -0.03385431
C      -1.17695658     -0.12198503     -0.01451039
N      -2.36700211     -0.83243120      0.12656923
N      -1.39660562      1.23723246     -0.13399819
H       2.57517366     -1.85315672     -0.08798726
H       3.44116906     -0.21048139      0.01421659
H       0.02322395     -1.82913515     -0.08577790
H      -2.25959096     -1.83386448      0.10325664
H      -3.10537048     -0.51728376     -0.48727092
H      -0.56473261      1.80256401     -0.09616695
H      -2.14344408      1.58593072      0.44840651
