17
b3lypvtz=-191993.9679576
C      -2.19072755     -0.45159463     -0.00000007
C      -0.68255208     -0.59423656      0.00000203
N      -0.11120293     -1.75636538      0.00000190
C       0.10677749      0.63020633      0.00000206
C      -0.57766548      1.97738866      0.00000643
C       1.47296436      0.59121976     -0.00000607
N       2.24348748     -0.51336742      0.00000948
H      -2.53545040      0.10090187     -0.87658406
H      -2.53545215      0.10090238      0.87658291
H      -2.66854229     -1.43063184     -0.00000012
H      -0.80086990     -2.50323106     -0.00000388
H      -1.21274721      2.12941891      0.87791128
H      -1.21276392      2.12941618     -0.87788668
H       0.16162398      2.77914976     -0.00000145
H       2.01746745      1.52978423     -0.00001678
H       3.24246609     -0.44089488     -0.00007501
H       1.75652807     -1.40747132     -0.00001797
