18
b3lypvtz=-205215.58064351
C       2.40929979     -0.01627195      0.11757190
C       0.96244308      0.00523290     -0.33514963
C       0.20911581      1.25281274      0.12192779
N      -1.19076633      1.14777496     -0.28639418
C      -1.81760038     -0.04345646      0.28226311
C      -1.03456667     -1.26308118     -0.17944692
O       0.33413409     -1.16570939      0.19412593
H       2.95555579      0.83258440     -0.29703631
H       2.89344534     -0.93415330     -0.21502084
H       2.47147975      0.02674336      1.20597084
H       0.91112615     -0.03752646     -1.43232738
H       0.32908297      1.34464714      1.21442015
H       0.64948198      2.13767990     -0.34202689
H      -1.70072268      1.98074390     -0.02347391
H      -2.84879536     -0.11235183     -0.07050048
H      -1.83317272     -0.03227718      1.38438576
H      -1.11906683     -1.35972994     -1.26992409
H      -1.41579678     -2.17256462      0.28484415
