13
b3lypvtz=-213772.25125396
C       2.49064015     -0.50170032     -0.00001733
C       1.06532112     -0.05958369     -0.00005024
N       0.71776611      1.19612578      0.00015588
O      -0.69067817      1.14547225     -0.00000298
C      -1.02383067     -0.15081033      0.00001685
C      -2.46422964     -0.50618857     -0.00002245
N       0.00402784     -0.94124537      0.00005301
H       3.01230475     -0.12637588      0.88024994
H       3.01226470     -0.12652368     -0.88037181
H       2.53227152     -1.58784896      0.00006274
H      -2.95989906     -0.09566250     -0.88066561
H      -2.56678963     -1.58754668      0.00003319
H      -2.95994902     -0.09557406      0.88055081
