14
b3lypvtz=-224598.03071032
N      -2.83808959      0.47743168     -0.27351836
C      -1.76086968     -0.14278364     -0.50216609
C      -0.84885028     -0.78180389      0.52294449
O       0.49320391     -0.91508488      0.07381512
C       1.27610163      0.21413883      0.04949994
N       0.96410117      1.41037954      0.33178803
N       2.53039620     -0.13394400     -0.38513809
H      -3.02337861      0.55038801      0.73084383
H      -1.45039230     -0.28013711     -1.54006376
H      -0.89460365     -0.24244474      1.47398847
H      -1.18151252     -1.80674872      0.69826960
H      -0.01568525      1.54379586      0.54359911
H       3.23051397      0.57242584     -0.23676174
H       2.81642001     -1.08365678     -0.21835554
