14
b3lypvtz=-226991.27720776
C      -0.45096660     -1.31716810      0.32522734
C       0.53365695     -0.22354751      0.01951447
C      -0.13109044      0.90840046     -0.19827589
C      -1.60283759      0.70097900     -0.06555336
O      -1.73792796     -0.68655064      0.25594968
O       0.37112879      2.12289827     -0.50276125
N       1.95395595     -0.30762349     -0.04462317
H      -0.41171201     -2.14362559     -0.39789237
H      -0.31217601     -1.75143988      1.32509532
H      -2.03822679      1.31754919      0.72982698
H      -2.13875633      0.92754285     -0.99491636
H       1.33494477      2.01664602     -0.53435703
H       2.26841272     -0.96159884     -0.75339545
H       2.36159455     -0.60246173      0.83616108
