12
b3lypvtz=-202887.94467295
C       2.54779806      0.57790988      0.21398630
C       1.38149835      0.30425794      0.27369761
C      -0.02944576      0.03191284      0.31496823
C      -0.59221648     -1.25566854     -0.24669646
N      -0.50479929     -1.06840432      1.18290930
C      -0.94296376      1.21797903      0.19501207
O      -2.10447576      1.18010539      0.51770565
H       3.58430050      0.80387130      0.17328005
H      -1.55959701     -1.18783222     -0.72985609
H       0.11339345     -1.95684657     -0.67224381
H      -1.41539681     -0.78324919      1.54170622
H      -0.47809550      2.13596446     -0.20507653
