12
b3lypvtz=-200492.91958776
C       1.05644348      1.07195614      0.24719793
C      -0.26093389      1.54132655     -0.18093340
C      -1.35414765      0.77087447     -0.18120552
C      -1.35532254     -0.62772307      0.24649460
N      -0.42075720     -1.48861407      0.14838795
N       0.77130923     -1.08405786     -0.51558536
N       1.55290905     -0.09768392      0.14902133
H       1.71596340      1.80346319      0.70725921
H      -0.34373371      2.59570935     -0.41910140
H      -2.31922295      1.20341648     -0.41957710
H      -2.26627165     -1.00286172      0.70600916
H       1.35276444     -1.90910553     -0.48696741
