14
b3lypvtz=-203693.68786527
C      -2.06442668     -0.53940525      0.52546390
C      -0.80413009     -0.81041142      0.21291488
C       0.01032688     -0.01943219     -0.77103345
O       0.49490804     -0.85165610     -1.82281005
C       1.25889159      0.58228453     -0.10589339
C       2.00624547      1.46270138     -0.99842671
N       2.58392767      2.17928923     -1.68783865
H      -2.58868662      0.30223196      0.08727527
H      -2.61872099     -1.14412990      1.23080853
H      -0.29796907     -1.66404986      0.65454923
H      -0.59876612      0.79687508     -1.17495237
H      -0.25931491     -1.21441545     -2.29818759
H       0.96524545      1.15001703      0.77837860
H       1.91226938     -0.22999904      0.21985181
