12
b3lypvtz=-249562.70606097
C      -2.09235162     -0.54057178     -0.23146684
C      -0.79936653     -0.83776703     -0.27532570
O       0.12416067      0.19333830     -0.12599129
C       1.45192812     -0.14623119     -0.17720025
O       1.86567103     -1.26612016     -0.34049160
N       2.21052520      0.96572921     -0.01673990
O      -2.62328174      0.70016830     -0.05069470
H      -2.84156485     -1.30900223     -0.34301626
H      -0.39838399     -1.82559358     -0.41911591
H       3.20766120      0.86500754     -0.03266571
H       1.79540185      1.86866699      0.11487415
H      -1.90039933      1.33237564      0.04106503
