14
b3lypvtz=-203647.66423085
N      -0.87123052      1.48843960     -1.63128650
C      -0.49969834      0.68434570     -0.74616251
C      -0.05831365      0.55798294      0.71585365
C      -1.06322556     -0.63811395      0.76621402
C      -0.33487817     -0.82277900     -0.60806391
C       0.96558412     -0.50168542      0.17489350
O       2.05049956     -0.08550715     -0.60997908
H      -0.85592181      2.44996602     -1.29158828
H       0.10069160      1.33001557      1.46467523
H      -2.11996654     -0.39021556      0.72551205
H      -0.84799653     -1.40023765      1.51508427
H      -0.48742570     -1.59951452     -1.35050274
H       1.25169920     -1.26067067      0.90841231
H       2.77028234      0.18797411     -0.03326201
