18
b3lypvtz=-181893.58244377
C       2.47185051     -0.63183665     -0.09851076
C       1.50969130      0.17232810     -0.53489233
C       0.14861071      0.34500780      0.04734733
C      -0.26633079      1.79704433      0.18537335
N      -0.31093193     -0.54764563      1.12065588
C      -0.85938131     -0.73175952     -0.23157103
C      -2.33499317     -0.50604652     -0.43284437
H       3.42720747     -0.68674894     -0.60242429
H       2.35588601     -1.26326010      0.77452099
H       1.70830006      0.79731714     -1.40155580
H      -0.26760694      2.29546045     -0.78689211
H      -1.25744911      1.88567392      0.62262953
H       0.43349889      2.32723268      0.83425057
H       0.38098918     -1.25870045      1.32960070
H      -0.45926141     -1.56930668     -0.79564819
H      -2.55730883     -0.28469800     -1.47912829
H      -2.70574604      0.31133337      0.18210564
H      -2.89136261     -1.40453729     -0.15640880
