15
b3lypvtz=-191204.69007422
C      -1.00912916      0.89371441     -0.53749172
C      -0.20139826      0.83054813      0.74049657
C      -0.48244607     -0.43975030     -0.06312749
C       0.87013683     -0.81012313     -0.59110063
C       1.77258325      0.08427026     -0.16678518
N       1.22725984      1.01942679      0.71726398
N      -1.43673725     -1.41311788      0.39217427
H      -2.06628204      1.06487576     -0.39000423
H      -0.57815152      1.33120591     -1.42793269
H      -0.70288146      1.02701868      1.67749109
H       1.07071824     -1.68416910     -1.19024653
H       2.82637273      0.13247305     -0.39871444
H       1.58226358      1.96295898      0.69053177
H      -0.97976681     -2.13384171      0.93906435
H      -1.89254190     -1.86548987     -0.39161912
