12
b3lypvtz=-228832.17838913
C       0.76094050      1.88093561     -0.06623084
C       0.67002478      0.54609566     -0.08317569
C       1.86617088     -0.30108400      0.12005923
N       1.92573819     -1.56489869      0.04896361
N      -0.51340364     -0.15426067     -0.38044964
C      -1.54936677      0.07158420      0.27195116
F      -2.68908457     -0.54695022     -0.03649047
H       1.71449334      2.35710986      0.11338937
H      -0.08659743      2.51817423     -0.27510053
H       2.77826757      0.24975039      0.35345053
H       1.00787648     -1.94967770     -0.18839853
H      -1.67512133      0.74162433      1.12131279
