13
b3lypvtz=-237086.58908786
C      -1.02560966     -0.92764402      0.09463923
C      -1.06096705      0.48302846     -0.53485214
O       0.34834391      0.76135866     -0.74686547
C       1.02156331     -0.18750442     -0.02977745
N       0.36071477     -1.13234860      0.51138640
N       2.37498874     -0.02268183     -0.02605779
O      -1.64689310      1.46981247      0.25331284
H      -1.32792804     -1.69238460     -0.62664560
H      -1.71568167     -0.98773708      0.93912208
H      -1.54652768      0.54706966     -1.50444813
H       2.70960469      0.91891565     -0.14265253
H       2.86832048     -0.58561985      0.64578431
H      -1.35992871      1.35573549      1.16705426
