20
b3lypvtz=-182619.4934980429
C      -2.38160520      0.79833037      0.61739447
C      -2.11816328     -0.06917214     -0.61500768
C      -0.88955241     -0.96616179     -0.51857011
N       0.39265234     -0.21004060     -0.45180402
H       0.42147511      0.37542330      0.40683563
H       0.41406080      0.47017950     -1.21391898
C       1.61808208     -1.04575917     -0.54449161
C       2.75871625     -0.31768712     -0.15517145
C       2.88637728      1.03038496      0.01751544
H      -2.47821338      0.18567847      1.51598618
H      -1.58350852      1.52220835      0.79324206
H      -3.30656094      1.36354630      0.50011429
H      -2.97584651     -0.72324343     -0.78771060
H      -2.03952042      0.55918494     -1.50794595
H      -0.80195426     -1.61782153     -1.38601182
H      -0.92421962     -1.59407113      0.37147791
H       1.44303132     -2.04184323     -0.16151933
H       3.64277683     -0.92606458      0.01500462
H       2.08775464      1.73742918     -0.18276822
H       3.83421790      1.46949933      0.28995660
