19
b3lypvtz=-195128.03699811
C      -2.83616663     -0.17423540      0.02113115
O      -1.51375901      0.12699214      0.40498299
C      -0.55046619     -0.29394817     -0.54697407
C       0.82542214      0.12739479     -0.09769851
C       1.03296211      1.62401603     -0.00157440
C       1.97512544     -0.73427042     -0.55461687
C       1.53355398     -0.76442438      0.88689226
H      -2.98742110     -1.25524834     -0.09779176
H      -3.49550705      0.18848739      0.80789572
H      -3.10590792      0.31652092     -0.92316592
H      -0.59425024     -1.38586654     -0.66654311
H      -0.78001054      0.15247370     -1.52686305
H       2.04364167      1.85930158      0.33471215
H       0.32804008      2.06633434      0.70314537
H       0.88408947      2.10312876     -0.97314363
H       1.76176188     -1.59871566     -1.16970951
H       2.90746490     -0.24059170     -0.79348743
H       2.17104658     -0.29575813      1.62417817
H       1.01528743     -1.64409590      1.24333842
