14
b3lypvtz=-224576.9597454
N      -3.06531323      2.00802755     -0.57084858
C      -1.90967221      1.57518879     -0.86559019
N      -1.24510081      0.49763618     -0.31580083
N      -0.00638465      0.16784308     -0.74387421
C       0.58040518     -0.83232311     -0.21473806
C       1.95895768     -1.21725161     -0.64972041
O       2.89048354     -1.16579139      0.43133588
H      -3.51224237      1.45904328      0.16529889
H      -1.31616162      2.06371816     -1.63423569
H      -1.69212845     -0.05112272      0.41248103
H       0.12191253     -1.41855665      0.58803981
H       2.26052317     -0.58069057     -1.48574110
H       1.97314372     -2.25554637     -0.98693300
H       2.96157752     -0.25007461      0.72022647
