13
b3lypvtz=-242075.14844783
C      -0.16524422      1.30028210     -0.95886564
C       0.10773855      0.20493066      0.07743884
O      -0.07597228      0.67589638      1.40515827
C       1.48929350     -0.31195604     -0.08577414
N       2.56473435     -0.70127346     -0.20923584
C      -0.84391314     -0.98801814     -0.08895036
F      -2.15393491     -0.54509380     -0.12604130
H      -1.18836186      1.64870955     -0.83840111
H      -0.03127773      0.92388848     -1.97290562
H       0.52171871      2.13468476     -0.81425799
H       0.43030165      1.48673443      1.52610355
H      -0.63036988     -1.51335945     -1.02067272
H      -0.73128473     -1.66294148      0.75927906
