18
b3lypvtz=-181911.37214911
C      -1.17728927      1.74309769     -0.27212891
C      -0.24745808      0.70311921      0.33560169
C       1.26126166      1.00529655      0.16547320
C       1.85245312     -0.37526467      0.00750041
C       0.86286289     -1.23426923     -0.24393577
N      -0.40452784     -0.64165523     -0.26715823
C      -1.53597494     -1.42718645      0.18561666
H      -2.22713134      1.48360631     -0.12636669
H      -0.99482541      1.83716941     -1.34345680
H      -1.01311774      2.71699813      0.19327538
H      -0.46329433      0.61477447      1.41283121
H       1.66005201      1.57055222      1.00923612
H       1.43112546      1.61116836     -0.73379777
H       2.90618945     -0.59969477     -0.02777630
H       0.94546709     -2.28926451     -0.46557986
H      -2.46950648     -0.92879773     -0.07533613
H      -1.52849653     -1.59411660      1.27457388
H      -1.53063072     -2.39796615     -0.31021108
