11
b3lypvtz=-213013.0972578
C       0.67940147      0.75356269     -0.79446829
C      -0.05215748     -0.03506573      0.03836445
O       0.84036430     -0.80684899      0.74998288
C       2.05185612     -0.42748740      0.29441251
N       2.02257715      0.48872460     -0.61692779
C      -1.46305473     -0.22059399      0.31369867
N      -2.34904028      0.45355276     -0.30135903
H       0.32181519      1.48339315     -1.49870756
H       2.91054367     -0.91419017      0.72454629
H      -1.67924374     -0.97356348      1.07791954
H      -3.28306168      0.19851657      0.01253835
