13
b3lypvtz=-239480.14129537
C      -1.50073440     -0.77375227      0.38122920
C      -0.62689832      0.44202791      0.32186356
O      -0.79882922      1.43310028      0.99602573
C       0.54544954      0.45441573     -0.67797354
C       1.60400985     -0.58377993     -0.28149354
O       1.44729411     -1.77368980     -0.32979209
O       1.12374972      1.72327022     -0.74394860
H      -2.16213459     -0.76856743     -0.48998192
H      -2.10711109     -0.75264283      1.28356670
H      -0.90648022     -1.68575380      0.32428144
H       0.15369397      0.14646269     -1.65605431
H       2.54974625     -0.11448737      0.05208867
H       0.67824440      2.25339660     -0.06118141
