17
b3lypvtz=-192000.82737034
C       2.08090229     -0.65129999     -0.67847098
C       1.21600006     -0.13470523      0.47297248
C       0.69166233      1.30650593      0.20672858
N      -0.70228160      1.19533825     -0.22542909
C      -1.10334855      0.00543988     -0.00629203
N      -2.35821672     -0.44510972     -0.34385610
C      -0.09582224     -0.93437054      0.62068275
H       1.53292082     -0.61430196     -1.62311347
H       2.98104329     -0.04450408     -0.79304721
H       2.39370247     -1.68406177     -0.51086701
H       1.79843522     -0.17125928      1.39470347
H       0.74203766      1.92989563      1.10593537
H       1.28241959      1.81647255     -0.55884964
H      -2.72316112     -1.22222835      0.17997288
H      -3.03002057      0.27761110     -0.54939581
H      -0.06872919     -1.90630848      0.12299372
H      -0.35883075     -1.11502895      1.66787109
