20
b3lypvtz=-182668.97627216
C      -2.34646193      1.24129229     -0.49816098
C      -2.13106035      0.22001891      0.62119086
C      -1.51696204     -1.10676634      0.15786087
C      -0.05877153     -1.09929984     -0.22363735
C       0.81472218     -0.10668211     -0.03740175
N       2.13981906     -0.08345305     -0.46762271
C       3.11885439      0.60749456      0.35615818
H      -2.79078649      2.16052779     -0.11186945
H      -3.02174299      0.84286533     -1.25883894
H      -1.41338044      1.50417253     -0.99635272
H      -3.09617362      0.00144941      1.08587466
H      -1.51626991      0.65650781      1.41368220
H      -2.10112368     -1.47879638     -0.69308530
H      -1.66602998     -1.85427775      0.94689099
H       0.29866370     -2.01076989     -0.69797402
H       0.51200074      0.81825945      0.44113272
H       2.46433768     -0.97923843     -0.80247666
H       3.28820470      0.13919423      1.33553058
H       2.78781337      1.63283738      0.52890274
H       4.07072914      0.65395412     -0.17257992
