16
b3lypvtz=-225343.73609286
N      -2.47053735     -0.78952826     -0.08647994
N      -1.80022748      0.48147347     -0.18418307
C      -0.54798933      0.46068958      0.09168923
N       0.13017949      1.66209922      0.11793122
C       0.26274620     -0.76582769      0.44669915
C       1.55745596     -0.93016081     -0.35377338
O       2.54907706      0.07064222     -0.09201454
H      -3.33776218     -0.65831586     -0.59368686
H      -2.75485159     -0.91798481      0.88306050
H       1.11798252      1.61619014     -0.08295165
H      -0.37384698      2.43080132     -0.29708131
H      -0.36764595     -1.63616066      0.26800327
H       0.50067847     -0.75094390      1.51614739
H       1.35159639     -0.85804248     -1.42174526
H       1.97135460     -1.92542554     -0.16484785
H       2.85616117     -0.03329394      0.81436210
