15
b3lypvtz=-214521.48408688
C       2.06872334     -0.09884343     -0.48213529
C       0.82599493      0.24457198      0.29627534
O       0.26987341      1.56040758     -0.06755337
C      -0.98190097      1.03658442     -0.26921996
N      -2.02021848      1.70894510     -0.47243630
C      -0.51991790     -0.41456305     -0.07804083
N      -1.13736208     -1.29191053      0.88757078
H       1.87941252     -0.05735203     -1.55570119
H       2.40025947     -1.10645069     -0.22348232
H       2.87662857      0.59549013     -0.24879206
H       1.00367282      0.22133437      1.37348094
H      -2.82570013      1.09964474     -0.59384424
H      -0.45281484     -0.93387523     -1.03510885
H      -1.93435939     -1.77785099      0.49835028
H      -1.45239127     -0.78603237      1.70653709
