15
b3lypvtz=-214497.89831499
C      -2.59041784     -0.53363932     -0.52000174
C      -1.52768056      0.04772017      0.04711898
N      -1.36338685      1.42200539      0.18746350
C      -0.39979323     -0.75723819      0.66017981
C       0.87696860     -0.60185380     -0.11248364
N       1.83991726      0.06302247      0.37786300
O       2.93093851      0.12287490     -0.50734357
H      -2.69151613     -1.60782511     -0.52929413
H      -3.39047078      0.04696612     -0.96082690
H      -1.94091317      1.99444365     -0.40779509
H      -0.40711150      1.74149182      0.22080803
H      -0.68602177     -1.80894846      0.67836452
H      -0.22912174     -0.42815234      1.68711624
H       0.95240255     -1.03891120     -1.10791859
H       3.58632664      0.61533090     -0.00295843
