17
b3lypvtz=-215270.92792613732
C      -1.48452466     -0.57513704     -0.96186505
C      -0.61599050      0.08960280      0.10251227
N      -1.21677538      1.34626234      0.51642580
N       0.71797364      0.29411955     -0.45826337
C       1.69834916     -0.78292307     -0.38439351
C       1.85115676      0.43956067      0.44965350
O      -0.53390785     -0.73850503      1.26574903
H      -2.49547564     -0.71566459     -0.58086148
H      -1.52251731      0.03538066     -1.86419955
H      -1.06664876     -1.54711525     -1.21806448
H      -1.41852857      1.91920130     -0.29449382
H      -0.55467499      1.86205841      1.08729661
H       1.41795111     -1.68862209      0.13801210
H       2.30372341     -0.91959099     -1.27209918
H       2.56748547      1.20382233      0.17474199
H       1.67052554      0.32036413      1.51059813
H      -1.31812146     -0.54281411      1.78925103
