16
b3lypvtz=-227739.35308264
C      -1.97733585      0.76921485      0.08762016
C      -1.50553322     -0.50259451      0.69270151
N      -0.55863860      0.54979078      0.34152135
C       0.29381955      0.32210624     -0.81920819
C       1.65364959     -0.18884049     -0.34915724
O       2.16034304      0.60053851      0.69084661
O       1.47967254     -1.53993872      0.05056668
H      -2.31346190      0.73624386     -0.94365700
H      -2.45407055      1.52575494      0.69792965
H      -1.63303590     -0.68311309      1.75212752
H      -1.51206203     -1.39240385      0.07443562
H       0.44296246      1.27825346     -1.32407437
H      -0.13815824     -0.38712175     -1.53690893
H       2.38583163     -0.12986440     -1.16074625
H       1.39324834      0.84450386      1.23302583
H       2.28276914     -1.80252970      0.51297706
