10
b3lypvtz=-279640.15767756
F       3.52031239      0.17759277     -0.37672575
C       2.31484955     -0.21331197      0.01655605
N       1.31191807      0.28633266     -0.55796253
O       0.13311296     -0.23948083     -0.01619151
C      -0.96632686      0.30190864     -0.63965097
C      -2.18107595     -0.06762964     -0.26798424
F      -3.26287627      0.46080552     -0.87677002
H       2.31504041     -0.94476555      0.81615745
H      -0.76812234      1.01974987     -1.42087651
H      -2.41683197     -0.78110147      0.50744801
