15
b3lypvtz=-193576.53834172
C       1.60838298      0.37950664     -0.39861787
C       1.20655252     -0.71678675      0.53737695
C       0.59910261      0.68465316      0.67584502
C      -0.74411556      0.12322721      0.27276385
C      -0.15890292     -1.29299094      0.13138049
C      -1.90379113      0.76846986     -0.33741426
O      -1.91165325      0.35352298      1.04406632
H       1.30478257      0.34804081     -1.43966538
H       2.59199271      0.80027761     -0.23623748
H       1.91630698     -1.20183947      1.19077032
H       0.75856954      1.43528066      1.43628402
H      -0.58903090     -1.94871910      0.88731535
H      -0.21566887     -1.77534611     -0.84651212
H      -1.90226638      1.84257865     -0.49573242
H      -2.56026089      0.20012478     -0.98919914
