14
b3lypvtz=-201293.96748437
C      -3.45261760      0.01625592     -0.00000402
C      -2.19281228      0.44962963      0.00000213
N      -1.10726978     -0.42017174      0.00000247
C       0.06450362      0.08043619      0.00000881
N       1.17308821     -0.72706582      0.00000754
C       2.50716626     -0.33374370     -0.00000091
N       3.02017510      0.82462176     -0.00000202
H      -3.67259680     -1.04242551     -0.00001027
H      -4.27797049      0.71294551     -0.00000193
H      -1.98326600      1.52167409      0.00000821
H       0.26755587      1.15303292      0.00001128
H       0.97652825     -1.71697310     -0.00000160
H       3.17190514     -1.19576355     -0.00000824
H       2.33259151      1.57538240      0.00000454
