15
b3lypvtz=-214486.38607638475
C      -1.90312066     -0.83131367     -0.21482718
C      -1.25936228      0.39460758      0.35583291
C       0.08532115      0.54489923      0.52420631
N       1.02709151     -0.35814031      0.21455579
C       2.45048732     -0.14142231      0.41709636
N      -2.13869420      1.42523012      0.72482461
O      -1.65668186      2.45248012      1.19889966
H      -1.69975555     -1.72656053      0.38237730
H      -1.57411712     -1.03770943     -1.23883846
H      -2.98211924     -0.68370255     -0.23568221
H       0.43187861      1.48128074      0.94829850
H       0.73742653     -1.23677748     -0.18043363
H       2.99394658     -1.02345629      0.08621355
H       2.80735138      0.71503518     -0.15825108
H       2.68034783      0.02554960      1.47122264
