16
b3lypvtz=-204457.40084326
C       1.87745177     -0.93626033      0.29657901
C       0.59409935     -0.50004782     -0.38461726
O      -0.47542755     -1.35812893      0.00793935
C      -1.69315340     -0.61823903     -0.11622678
C      -1.34297997      0.79639152      0.34493006
C       0.11714988      0.91227419     -0.03905726
N       0.75831650      2.00082254     -0.06515040
H       2.70702734     -0.29245060     -0.00012255
H       1.76867388     -0.89091094      1.38015214
H       2.12477010     -1.95903373      0.01338023
H       0.72010756     -0.55089103     -1.47821249
H      -2.44407614     -1.11557049      0.49389646
H      -2.03310383     -0.61969168     -1.15991530
H      -1.94202125      1.58473715     -0.10691599
H      -1.43274030      0.88300253      1.43028548
H       1.73020506      1.85485764     -0.34461271
