14
b3lypvtz=-226988.93319005
N      -3.10869649      0.59888983     -0.07408659
C      -2.44599854     -0.46056431     -0.25131632
O      -1.12525984     -0.71364626     -0.10526345
C      -0.27941248      0.36691154      0.34696443
C       1.10883457     -0.14042121      0.50321192
C       2.10779751      0.29432120     -0.25683212
O       3.38711465     -0.14411699     -0.09829426
H      -2.54319812      1.38679313      0.23288232
H      -2.94448952     -1.36908931     -0.58008796
H      -0.67566221      0.73566771      1.29864368
H      -0.31901982      1.18540644     -0.37798622
H       1.29950862     -0.88385748      1.26732529
H       1.94828677      1.03079858     -1.03889380
H       3.95770091      0.27064012     -0.75022892
