14
b3lypvtz=-250320.75660054
C       3.09243444      0.09125414      0.00005682
O       1.84680290     -0.58019562     -0.00006487
C       0.77283427      0.30589415     -0.00009080
O      -0.37654042     -0.53000432     -0.00014939
C      -1.56447498      0.12768502     -0.00015923
N      -2.58862458     -0.76261736      0.00004805
O      -1.67956143      1.33234563      0.00003934
H       3.86449599     -0.67435910      0.00008771
H       3.21183514      0.71963650      0.89071099
H       3.21197383      0.71970307     -0.89053188
H       0.76951922      0.94188969     -0.89335277
H       0.76943750      0.94184346      0.89320377
H      -3.52626615     -0.40918838      0.00032877
H      -2.41648174     -1.75053187      0.00006449
