13
b3lypvtz=-213708.62083322
C      -1.73138183     -1.14869196     -0.50024410
N      -0.30019603     -1.04686703     -0.28073303
C       0.28149773      0.19429661     -0.10266089
N      -0.41471860      1.25472259     -0.32772400
O       0.35874120      2.42478386     -0.19955293
C       1.65688432      0.19109784      0.29622558
C       2.80389850      0.16962262      0.64756713
H      -2.00072442     -0.62825513     -1.41846317
H      -2.31698679     -0.70736315      0.31325232
H      -1.99119033     -2.20056261     -0.60333962
H       0.12170187     -1.77779757      0.26709695
H      -0.28746250      3.11090152     -0.39061895
H       3.81993688      0.16411241      0.95483178
