16
b3lypvtz=-258677.4440393
C      -0.62051879      1.74910771     -0.26529135
C      -0.23514912      0.28309657     -0.47661025
C      -1.03907929     -0.68837535      0.41720765
N      -2.47481546     -0.75998449      0.16211020
C       1.25993855      0.10572481     -0.28472567
F       1.61779768      0.32661158      1.02249654
F       1.64215571     -1.17623380     -0.58788351
H      -0.06162613      2.41136631     -0.92931326
H      -1.67937084      1.90319006     -0.47197423
H      -0.42473371      2.05899133      0.76233685
H      -0.42384516      0.01514361     -1.52234836
H      -0.89463393     -0.41171684      1.46313664
H      -0.62956204     -1.69218771      0.30280569
H      -2.66495181     -1.02737262     -0.79641886
H      -2.92995941      0.12895146      0.32471693
H       1.85967674      0.77830537     -0.90278502
