15
b3lypvtz=-214516.45971265
C       2.72112942     -0.81748604     -0.01620530
O       2.25176545      0.47929723     -0.41140758
C       0.97163356      0.76019727     -0.13844270
N       0.17791257     -0.03127518      0.43697965
C      -1.18445156      0.41424444      0.65853616
C      -2.17232185     -0.54687384      0.03593005
N      -3.22573750     -0.26115183     -0.60265527
H       3.76647068     -0.85122921     -0.30897795
H       2.15495241     -1.59933898     -0.52144380
H       2.61804416     -0.94956437      1.06039088
H       0.72586933      1.76765261     -0.48330760
H      -1.36894387      0.41873037      1.73984171
H      -1.37924523      1.43146954      0.28915165
H      -1.92993379     -1.60152262      0.17928302
H      -3.34239176      0.75253662     -0.68321489
