15
b3lypvtz=-240247.83673085
C      -1.82879799     -0.96713069      0.05770586
C      -0.91398093      0.21633634     -0.08129545
O      -1.32114855      1.34941534     -0.22819673
C       0.62091705     -0.01684844      0.01930601
C       1.14518318     -1.04662224     -0.96675213
O       1.26222094      1.20675260     -0.16524688
O       0.86879206     -0.51763153      1.33521581
H      -1.52239222     -1.58484569      0.90140919
H      -2.85437733     -0.62797992      0.18052076
H      -1.76301808     -1.58676034     -0.84010565
H       0.74775701     -2.03737418     -0.75214961
H       0.88606801     -0.76282552     -1.98701727
H       2.23011433     -1.07850009     -0.87580031
H       0.55514753      1.87269439     -0.22985755
H       1.00988900      0.25376798      1.89650994
