15
b3lypvtz=-214504.54872315
C      -1.03870275      1.00540458     -0.33160965
C      -1.98796601     -0.22095715     -0.20788030
N      -0.83596078     -1.10173710      0.16840255
C       0.06467613      0.01919551     -0.02393973
C       1.38254958      0.05866997      0.16113503
N       2.16498460     -1.05855548      0.47155129
O       2.15659503      1.18386953      0.01016288
H      -1.02371155      1.46467538     -1.32329700
H      -1.20533534      1.78945487      0.41057740
H      -2.73872260     -0.15524955      0.57955695
H      -2.47566493     -0.50139235     -1.14178364
H      -0.69262947     -1.86277325     -0.48809695
H       2.99997952     -0.79286929      0.97697361
H       1.63695751     -1.74312584      0.99809617
H       1.59295105      1.91539015     -0.25984864
