15
b3lypvtz=-214500.94038052
N      -0.21321763      1.12186375      1.42438099
C      -0.56091891      0.13058718      0.49480709
C      -1.71175243     -0.54954730      0.53508017
O      -1.92248788     -1.66686071     -0.26374322
C       0.49181410     -0.17781816     -0.50527720
C       1.93319424     -0.24575155     -0.14565963
N       1.40770236      0.93620288     -0.84174895
H      -0.98584181      1.45648383      1.98038221
H       0.28148763      1.88383833      0.97715873
H      -2.48505572     -0.32683602      1.26371475
H      -2.82236601     -1.64101279     -0.60158094
H       0.16225759     -0.82211513     -1.30792042
H       2.55592448     -0.94166559     -0.69496778
H       2.22673907     -0.06919818      0.88041496
H       1.64252091      0.91182947     -1.82734075
