10
b3lypvtz=-251384.45888487
C      -1.62646450     -0.48370288      0.18343186
N      -2.23939784      0.62135847      0.15803789
C      -0.13502291     -0.65783218      0.11900268
O       0.37431595     -1.75244795      0.14797001
N       0.57064180      0.58247270      0.02340608
C       1.81942168      0.50666450     -0.03365254
F       2.54605737      1.60820305     -0.12305568
H      -2.17654994     -1.42023454      0.25737920
H      -1.56389831      1.38808088      0.08639039
H       2.43089669     -0.39256206     -0.01928352
