12
b3lypvtz=-200473.17787616
C       1.52305517     -1.49604671      0.21303673
C       0.72522875     -0.43137510      0.04654940
C       1.24786598      0.89044724     -0.11764183
C       1.68781095      1.99925587     -0.25551536
N      -0.67159450     -0.66251154      0.04144226
N      -1.36610959      0.36498915     -0.11592733
N      -2.67679463      0.11021271     -0.17655246
H       2.59649917     -1.39096791      0.23209638
H       1.08756089     -2.47734268      0.33321212
H       2.07984913      2.97797766     -0.37625147
H      -2.98291459     -0.79753744      0.15926334
H      -3.25045670      0.91289876      0.01628823
