16
b3lypvtz=-209461.28553453
C      -2.09083398     -0.94601808      0.00000051
C      -1.20782082      0.05775668     -0.00000406
C      -1.64531531      1.49891067     -0.00000461
C       0.22987078     -0.21226272     -0.00000858
F       0.53917929     -1.53866348     -0.00000217
C       1.22973024      0.66966931     -0.00000558
C       2.68515402      0.33013670      0.00000086
H      -3.15387461     -0.74767303      0.00000509
H      -1.77661218     -1.97870578      0.00000014
H      -1.27325943      2.02914062     -0.87946815
H      -1.27325191      2.02914353      0.87945398
H      -2.73169945      1.56449043     -0.00000009
H       0.95930687      1.71626516     -0.00000603
H       2.84776647     -0.74512952     -0.00000500
H       3.18358048      0.75267349      0.87682887
H       3.18359154      0.75268503     -0.87681520
