13
b3lypvtz=-213796.97114255
C      -1.23932466     -0.58404748      0.00215926
C      -1.03472341      0.89950725      0.06934484
C       0.18521330      1.42973803      0.06531514
N       1.33094815      0.64723026     -0.00087547
C       1.29815576     -0.73681901     -0.06804818
O       2.31756303     -1.40230886     -0.12571938
N       0.04521021     -1.28069638     -0.06408493
H      -1.80252088     -0.93011449      0.87842433
H      -1.84658932     -0.84438603     -0.87431343
H      -1.90525062      1.53511015      0.12146960
H       0.35516313      2.49597180      0.11312577
H       2.24797137      1.05606894     -0.00305884
H       0.04818393     -2.28525418     -0.11373872
