14
b3lypvtz=-203672.07991539
C      -1.34395337     -0.88085014      0.34919302
C      -1.70235776      0.37505826      0.64153586
N      -0.80042959      1.32925192      0.14862050
C       0.35784405      0.62346479     -0.34941126
C       0.00252310     -0.86581048     -0.28932237
C       1.12706872     -0.31810532      0.54643266
O       2.41122599     -0.68467542      0.11943666
H      -1.93957769     -1.76346519      0.51345720
H      -2.59672052      0.71189828      1.14420889
H      -0.63834808      2.15177222      0.71072119
H       0.88044939      1.06038847     -1.19088492
H       0.26529691     -1.54492213     -1.08861771
H       0.98039829     -0.26838433      1.62209885
H       2.99658054      0.07437904      0.21510811
