15
b3lypvtz=-193590.4946607
O       2.40313035      0.39469061      0.82303158
C       1.08306116      0.34106327      0.51578702
C       0.06690362      1.07646179      0.96933083
C      -1.12318266      0.47249116      0.19887208
C      -0.51720254      0.34158234     -1.23812196
C       0.44129691     -0.63583918     -0.47815099
C      -0.82677555     -1.05789823      0.33753961
H       2.87440784     -0.27604201      0.32006699
H       0.04664418      1.88288893      1.68190450
H      -2.11133028      0.88893553      0.37473182
H      -1.17026393     -0.16774885     -1.94937150
H      -0.07533020      1.23415281     -1.67845750
H       1.08526793     -1.35245926     -0.98801931
H      -0.66857814     -1.44816434      1.34176561
H      -1.50794870     -1.69421456     -0.23080879
