14
b3lypvtz=-180360.91739865
C       3.17030526      0.05558200     -0.37131733
C       1.97311174      0.09079692     -0.25391414
C       0.57016809      0.07762872     -0.07613615
C      -0.32302915      0.95709980     -0.54008675
C      -1.72175117      0.53313500     -0.17963250
N      -1.55081284     -0.59135543      0.76382696
C      -0.15481653     -1.04844446      0.65238199
H       4.22521531      0.03739390     -0.48564693
H      -0.09094602      1.82570588     -1.13935264
H      -2.26606993      0.21143241     -1.07749013
H      -2.31418640      1.33422149      0.26945896
H      -1.70558988     -0.25035121      1.70227530
H       0.27335242     -1.26148780      1.63326118
H      -0.08495089     -1.97135721      0.06522476
