15
b3lypvtz=-214523.24829212
C       1.19335443     -1.74006239     -0.32977041
C       0.66820829     -0.46746848      0.35141365
C       1.73134713      0.61816150      0.31345960
N       1.65469897      1.75518433     -0.22872767
N      -0.54188193     -0.01297972     -0.30336855
C      -1.62308210     -0.07631078      0.32629096
O      -2.77939139      0.32471762     -0.25007110
H       0.47946257     -2.55574167     -0.21489308
H       1.34157054     -1.55905996     -1.39417172
H       2.14341045     -2.05003825      0.10821698
H       0.49338122     -0.69903608      1.41583106
H       2.66351860      0.34766679      0.81750787
H       0.73617287      1.86332882     -0.66840723
H      -1.72323149     -0.44757645      1.35408706
H      -3.50395814      0.21934772      0.37452557
