17
b3lypvtz=-191942.23628993
N       1.86184030      0.01596862      0.80523994
C       0.98118221     -0.03591829     -0.35076035
C       0.03867589     -1.26098805     -0.50576437
C      -0.78164854     -0.74235492      0.70253704
C      -0.46773584      0.51558344     -0.18779987
N      -0.79729438      1.89727256     -0.01822000
C      -0.83818139     -0.35431274     -1.41362970
H       2.59218342     -0.68245313      0.72567162
H       2.32988363      0.91405331      0.84554059
H       1.45735760      0.27595718     -1.28825799
H       0.33572144     -2.28753154     -0.70548341
H      -0.29803986     -0.78130803      1.67383808
H      -1.82707931     -1.05103070      0.74031754
H      -1.80003946      2.03919296     -0.06051803
H      -0.48689717      2.22969243      0.88805068
H      -1.88599332     -0.64004088     -1.50559462
H      -0.41383522     -0.05188221     -2.37186716
