15
b3lypvtz=-191222.57210502
C      -2.73031320     -0.10397677     -0.33261644
C      -1.69733574     -0.58340049      0.34670872
C      -0.33944944      0.06095811      0.45641410
N      -0.32800588      1.40910324     -0.09849290
C       0.69654858     -0.80430442     -0.30500059
C       2.06184306     -0.32335685     -0.11840116
N       3.12353177      0.08914546      0.04657790
H      -3.67442892     -0.63128412     -0.35702983
H      -2.66104239      0.82066162     -0.88929034
H      -1.79756555     -1.52065768      0.88607150
H      -0.05183517      0.03224545      1.51844091
H      -0.96447838      2.00533190      0.41715639
H       0.59526482      1.81955683     -0.01830723
H       0.64238387     -1.83989792      0.03463127
H       0.45569556     -0.78538937     -1.36930428
