17
b3lypvtz=-191991.44556404
C      -2.66772486      0.32106969      0.02849029
C      -1.50190421     -0.60044679     -0.33082701
C      -0.20344533     -0.24960646      0.38851279
C       0.40941225      1.12616436      0.00276910
N       1.84635729      0.80968764      0.00184223
C       1.92625745     -0.56988753     -0.10006788
N       0.86382633     -1.23746643      0.10997027
H      -3.58166012      0.01378152     -0.48145062
H      -2.86684582      0.30418314      1.10259011
H      -2.47005943      1.35755439     -0.25408626
H      -1.32141529     -0.57770450     -1.40963618
H      -1.75173837     -1.63380723     -0.08263757
H      -0.39055733     -0.27354731      1.46923950
H       0.17748398      1.91615805      0.71496202
H       0.07183797      1.44332414     -0.99154312
H       2.46434535      1.36468455     -0.56977929
H       2.88674114     -1.02834523     -0.30908536
