15
b3lypvtz=-193584.26731316
C       3.32725305      0.26555087      0.09107266
C       1.92338315     -0.06326279     -0.11431369
C       0.76577849     -0.33992249     -0.27617326
C      -0.64639397     -0.65751852     -0.47044435
C      -1.57806735      0.40783160      0.07189935
C      -2.92747192      0.07873463      0.53284349
O      -1.87685797      0.35494484      1.46644708
H       3.88262061      0.23484234     -0.84859398
H       3.43767102      1.26735807      0.51117477
H       3.79856037     -0.43760033      0.78088757
H      -0.88692830     -1.60801588      0.01345892
H      -0.85003482     -0.78497699     -1.53944511
H      -1.39300247      1.41151402     -0.30119658
H      -3.71412958      0.82451134      0.48312422
H      -3.26238032     -0.95399068      0.50790148
