16
b3lypvtz=-225319.32646378464
C       1.49041148      0.17773827     -0.17449374
C      -0.00286382      0.17555557     -0.23562678
N      -0.62888939      1.30030538     -0.07274301
O      -0.11478927      2.45034671      0.14827523
C      -0.79941330     -1.08183255     -0.44828187
N      -2.23277579     -0.86469677     -0.23288394
N       1.93609000      0.45715898      1.20032007
H       1.86155606     -0.80580747     -0.46960643
H       1.85533976      0.91049229     -0.90798024
H      -1.65260066      1.23174505     -0.13148383
H      -0.65336935     -1.43102748     -1.47656580
H      -0.37615278     -1.86381118      0.19576535
H      -2.48217813     -1.01700842      0.73636448
H      -2.78823037     -1.49587350     -0.79318089
H       1.63855121      1.40150667      1.42804815
H       2.94931433      0.45520843      1.23407326
