11
b3lypvtz=-213020.66489656
N       0.82670963      0.32122160     -0.06887205
C       0.34601593      0.35908263      1.10647943
C       0.93906531      0.50942739      2.43259171
C      -0.06218466      0.47867981      3.33157143
N      -1.30456255      0.31805729      2.72750419
C      -1.17354391      0.23202660      1.34441241
O      -2.06665658      0.09148033      0.55266911
H       1.84346905      0.41933293     -0.04783003
H       1.98692671      0.62423856      2.65185989
H       0.00016003      0.56114962      4.40551873
H      -2.18869896      0.26810323      3.20219518
