13
b3lypvtz=-192801.46780621
C      -0.10762360      2.49045532      0.30199558
C       0.12745582      1.37888527     -0.08129120
C       0.34139375      0.00456606     -0.54866998
C       1.31305884     -0.71265188      0.28129252
C       2.10606391     -1.32198011      0.94070531
C      -1.02084336     -0.74309521     -0.63892953
O      -1.69391369     -0.83187340      0.59334979
H      -0.28830566      3.48111328      0.63818206
H       0.73651091      0.05172402     -1.57088587
H       2.80451381     -1.85841593      1.53293228
H      -1.62716959     -0.23621050     -1.39804357
H      -0.83372247     -1.76478556     -0.96620811
H      -1.85751868      0.06206864      0.91557072
