16
b3lypvtz=-204439.55106017
C       2.16144154      0.24696258     -0.36761898
C       0.71823528      0.08644187      0.00811132
C      -0.19098952      1.29736695      0.10958740
N      -1.53910720      0.72790873      0.22013007
C      -1.56058861     -0.58552679     -0.43702922
C      -0.13396521     -1.06069440     -0.31443349
O       0.41829298     -0.91249958      1.00240912
H       2.26167196      0.75750273     -1.32734455
H       2.64699120     -0.72556234     -0.43560709
H       2.69064620      0.83735982      0.38364899
H      -0.03549799      1.91266461     -0.78997992
H       0.03729247      1.91585592      0.98208972
H      -2.25841740      1.34929739     -0.11826792
H      -2.27303447     -1.25041974      0.05823168
H      -1.81657198     -0.55372630     -1.50778048
H       0.20942876     -1.92057044     -0.87806866
