20
b3lypvtz=-182668.1623108
C      -2.64316837      0.23007989      0.00000012
C      -1.26162818     -0.39799927      0.00000005
C      -0.23953298      0.04438117     -1.07991089
C       0.87970009      0.02731745      0.00000009
C       1.86558464      1.19040098      0.00000021
N       1.52504341     -1.29167426     -0.00000004
C      -0.23953298      0.04438091      1.07991109
H      -3.21539538     -0.06932726     -0.88158898
H      -2.58097468      1.32150439      0.00000024
H      -3.21539540     -0.06932747      0.88158913
H      -1.34212094     -1.48472959     -0.00000007
H      -0.09425424     -0.61027674     -1.93974765
H      -0.44072888      1.05787684     -1.43298784
H       2.50963295      1.15214766     -0.88315887
H       1.35436694      2.15539384      0.00000033
H       2.50963299      1.15214747      0.88315926
H       2.12445651     -1.38584007     -0.81388167
H       2.12445662     -1.38584018      0.81388150
H      -0.09425423     -0.61027724      1.93974767
H      -0.44072889      1.05787648      1.43298833
