15
b3lypvtz=-170292.09071679
C      -0.13324278      2.33747126      0.00000385
C      -0.06703031      1.13703287      0.00000370
C      -0.02536685     -0.29219676     -0.00000314
C      -1.29907111     -1.02429645     -0.00000844
C      -2.51601297     -0.48309908     -0.00000724
C       1.14626569     -0.96126229     -0.00000474
C       2.51414291     -0.37096143      0.00000069
H      -0.18327485      3.39768474      0.00000751
H      -1.19795721     -2.10463948     -0.00001363
H      -2.66203792      0.58885652     -0.00000195
H      -3.40024888     -1.10514660     -0.00001179
H       1.09048600     -2.04528868     -0.00001071
H       3.07852390     -0.70599059      0.87558383
H       3.07852460     -0.70597571     -0.87558773
H       2.49090378      0.71679269      0.00000981
