15
b3lypvtz=-170254.9973956
C       2.81582854      0.00017272     -0.00063154
C       1.61444373      0.00002293      0.00011070
C       0.17847993     -0.00006868      0.00031204
C      -0.77385111     -0.64014144     -1.06248257
C      -1.70786417     -0.00017612      0.00002039
C      -0.77420097      1.24019811     -0.02266503
C      -0.77420503     -0.60049226      1.08576172
H       3.87720110     -0.00002839     -0.00116094
H      -0.76223185     -0.18179332     -2.05093558
H      -0.76248192     -1.72822314     -1.11938607
H      -2.79455440     -0.00021163     -0.00018298
H      -0.76313312      1.86684633      0.86864013
H      -0.76270425      1.83373831     -0.93636466
H      -0.76293720     -0.10598218      2.05662978
H      -0.76285928     -1.68568825      1.18288960
