14
b3lypvtz=-203706.87249193
C      -3.09916816     -0.33812001      0.00010563
C      -1.90557205      0.25100336     -0.00001084
N      -0.69065159     -0.42471678     -0.00011265
C       0.53412309      0.21265187     -0.00018893
O       0.63982659      1.42517186     -0.00012865
C       1.69627381     -0.71880584     -0.00006904
C       2.94228139     -0.26085142      0.00012218
H      -3.99768157      0.25895688      0.00020158
H      -3.21592002     -1.41476743      0.00010618
H      -1.78297066      1.32456602     -0.00003298
H      -0.70527623     -1.43169549     -0.00011355
H       1.49768999     -1.78532130     -0.00011837
H       3.12662925      0.80553174      0.00014802
H       3.79322317     -0.92779247      0.00024842
