17
b3lypvtz=-215287.0822351
C       2.12056358      0.80100558     -0.11316555
C       0.95205559     -0.16305671     -0.31818789
N       1.24735810     -1.55509745      0.05622726
C      -0.31733684      0.30605159      0.44312487
N      -0.70066521      1.65158643      0.03256959
C      -1.43703838     -0.71732474      0.24911057
O      -2.41747930     -0.48738239     -0.41551213
H       1.84873643      1.81528487     -0.39908193
H       2.42398385      0.81312897      0.93800466
H       2.98021921      0.48343237     -0.70683737
H       0.68975929     -0.17409708     -1.38077534
H       1.94061239     -1.94532071     -0.57106594
H       1.65748059     -1.58586673      0.98468852
H      -0.06816540      0.31393801      1.51142980
H      -1.22450477      2.10576474      0.77060595
H      -1.34379965      1.57631838     -0.75030921
H      -1.29770346     -1.69593112      0.73628214
