15
b3lypvtz=-191250.43500031
C       1.73077543     -1.32101066     -0.00000806
C       0.40386344     -0.63693305     -0.00000066
C       0.12165930      0.70753411      0.00000133
C       0.97882022      1.92635338      0.00001939
N      -1.26017029      0.77895160     -0.00000467
H      -1.80805246      1.62169710     -0.00001180
C      -1.73847187     -0.49586654     -0.00000614
N      -0.76711383     -1.37068452     -0.00002866
H       1.83751552     -1.96082991     -0.87844416
H       1.83735777     -1.96111602      0.87823637
H       2.55425162     -0.60723967      0.00018062
H       2.03062312      1.64702190     -0.00000771
H       0.80551406      2.54942124      0.88219952
H       0.80548385      2.54946931     -0.88212065
H      -2.79321989     -0.71875826     -0.00000572
