16
b3lypvtz=-202051.02106826
C       2.41304610     -0.03616284      0.64944947
C       1.42667729     -0.62203471     -0.35982534
N       0.40370642      0.33160470     -0.81245021
C      -0.71857311      0.64894167     -0.05859496
N      -1.21850900      1.81078456      0.12529281
C      -1.53332227     -0.48583869      0.49099831
N      -1.66443030     -1.64516935     -0.00186992
H       3.16006832     -0.78135125      0.92908694
H       2.94092410      0.82409853      0.23215856
H       1.90210225      0.28873222      1.55682694
H       0.92643676     -1.48594174      0.07109693
H       1.96053711     -0.97472734     -1.24422926
H       0.80842791      1.15040999     -1.24674704
H      -0.65473156      2.54511073     -0.30487591
H      -2.11554353     -0.21506886      1.36963705
H      -1.09421749     -1.74646862     -0.84418539
