12
b3lypvtz=-249738.916852
N      -2.57990772      0.23714962      0.34019962
N      -1.96883578     -0.95321241     -0.01444573
C      -0.70764542     -0.96846135     -0.07029780
F      -0.13649522     -2.17974685     -0.33101823
N       0.14132491      0.09126422      0.09366245
C       1.41245577     -0.08640698      0.07560137
N       2.27555177      0.94270923      0.20132415
H      -2.01467119      1.05305120      0.12162054
H      -3.48297017      0.27879437     -0.10808962
H       1.87894909     -1.06171947     -0.05208994
H       3.26181206      0.78030366      0.27467245
H       1.92033189      1.86637477      0.38136076
