16
b3lypvtz=-202041.9683467622
C      -2.04430639     -0.96223109     -0.48508058
C      -1.09992429      0.05806924      0.04731097
N       0.18894908     -0.04733443     -0.12143280
C       1.22133270      0.79514104      0.24609749
C       2.50141628      0.25837413      0.00776290
N       2.65234166     -0.96064425     -0.42646995
N      -1.59730938      1.18030120      0.67265408
H      -2.68608428     -1.35671763      0.30929068
H      -2.70018854     -0.53655312     -1.25089652
H      -1.50245691     -1.79389659     -0.93132387
H       0.57732428     -0.90045294     -0.53855442
H       1.01837349      1.82455769      0.48046312
H       3.34347947      0.92741369      0.20416882
H       3.62741077     -1.19074438     -0.57553036
H      -2.53704225      1.09426370      1.02609663
H      -0.96331568      1.61045376      1.33544383
