15
b3lypvtz=-191210.37399856
C       2.21006129      0.37120169      0.13333833
C       0.81909768     -0.15456798      0.04855302
N       0.37900336     -1.15880859      0.69208908
C      -1.02985449     -1.35826680      0.31797792
C      -1.36260933     -0.19129429     -0.60443062
C      -1.17365365      1.18046174     -0.08982854
N      -0.08446840      0.51500413     -0.85311578
H       2.68045613      0.33852260     -0.85107288
H       2.79296687     -0.21457373      0.83906871
H       2.20194590      1.41812556      0.44564587
H      -1.13575049     -2.31440368     -0.20046389
H      -1.65117029     -1.40784364      1.21498053
H      -1.99255971     -0.35287461     -1.46891377
H      -1.02016763      1.31202772      0.97547674
H      -1.63329723      2.01718988     -0.59940472
