17
b3lypvtz=-194391.08873618
C       2.18606742     -0.56289969      0.16245727
C       0.69645320     -0.46230775      0.10039476
C      -0.17515674     -1.39693278     -0.27946872
C      -1.60767089     -0.93604593     -0.22703797
C      -1.50667590      0.44418315      0.46510000
C      -0.01354815      0.83872149      0.41762157
O       0.29523175      1.85355527     -0.55249364
H       2.65190122      0.22860269     -0.42893828
H       2.54217226     -0.43514299      1.18924170
H       2.54341500     -1.52574608     -0.20246544
H       0.10174492     -2.39126384     -0.60904599
H      -2.04231525     -0.87559507     -1.23053698
H      -2.24251833     -1.62726761      0.33244163
H      -2.12065425      1.21388466     -0.00120464
H      -1.82786688      0.35975074      1.50420282
H       0.31908629      1.27722503      1.36011158
H       0.13871334      1.48064071     -1.42734468
