10
b3lypvtz=-223084.12762116
C       1.70034512     -0.08614361     -0.10134250
N       1.04845672      1.03395605     -0.09518347
C      -0.28696752      0.60812606     -0.00074646
N      -1.38033217      1.23817861      0.04715442
C      -0.23023721     -0.89926597      0.04120207
N       0.98582726     -1.31015811     -0.02078353
O      -1.30604791     -1.65092231      0.12956486
H       2.77960109     -0.12660731     -0.16616665
H      -1.23648876      2.24780962      0.00795845
H      -2.07415662     -1.05497303      0.15834282
