16
b3lypvtz=-227764.15202487
C       3.12906136     -0.41548576      0.23527923
C       1.87291580      0.39254389     -0.05967353
N       0.70184547     -0.47963757     -0.09899233
C      -0.44604980      0.03356211     -0.13290722
O      -0.69597992      1.37112234     -0.11504070
C      -1.68821184     -0.82787095     -0.25171089
O      -2.84215250     -0.16549458      0.27689975
H       3.04981407     -0.91093127      1.20414985
H       3.27698836     -1.18640831     -0.52190597
H       4.01062940      0.22823262      0.25032548
H       1.74216943      1.18092370      0.68930523
H       1.97585481      0.90426570     -1.02306520
H      -1.65878994      1.47557604     -0.04453364
H      -1.90362493     -0.99870982     -1.30789499
H      -1.50536934     -1.79270909      0.21895305
H      -2.84759344     -0.27107307      1.23380888
