18
b3lypvtz=-181889.3781303
C       1.79722105      1.30484219     -0.12384216
C       1.00751612      0.03027964     -0.26972046
C       1.35655149     -0.91015677     -1.14306337
C      -0.19114954     -0.05471010      0.63727664
C      -1.45091622      0.72574248      0.13628074
N      -2.08135904     -0.56355986     -0.22328166
C      -1.09988287     -1.30779279      0.59822635
H       2.20972865      1.39319864      0.88586707
H       1.16229775      2.18220801     -0.27862748
H       2.62064387      1.35311140     -0.83515722
H       0.79741314     -1.82681444     -1.26442693
H       2.22298821     -0.78479071     -1.77990194
H       0.11450178      0.23303228      1.64469053
H      -1.30374046      1.40175116     -0.70853083
H      -1.95121928      1.27104248      0.94406652
H      -3.04877989     -0.66548036      0.05492878
H      -1.45529250     -1.57362758      1.60013641
H      -0.70652224     -2.20817568      0.12527900
