17
b3lypvtz=-240976.78366341
C      -1.25591674     -1.14030511      0.89506672
O      -0.76457452      0.19876046      0.95575801
C       0.13198806      0.58217794     -0.08146580
C      -0.54698065      0.59193460     -1.44587172
O      -1.72580365      1.37764943     -1.42131158
O       1.25378827     -0.24581334     -0.17076032
C       2.17263789     -0.10536240      0.90621338
H      -0.44480249     -1.85825416      0.76535814
H      -1.75243927     -1.32399792      1.84549494
H      -1.98118276     -1.27434040      0.08713679
H       0.41754928      1.60125611      0.20158041
H      -0.74939189     -0.43768439     -1.76251038
H       0.13083190      1.03444296     -2.17509356
H      -2.15144873      1.22819863     -0.56886442
H       1.71157028     -0.36028505      1.86317365
H       2.99690292     -0.78692163      0.70825877
H       2.55727210      0.91864427      0.95953696
