13
b3lypvtz=-237075.55813647126
C      -0.48048279     -0.61490534      0.17876710
N       0.15244601      0.57798735     -0.10413338
C       1.42282716      0.87281457     -0.05267903
N       2.35260673     -0.04953587      0.35387647
C      -1.86491289     -0.72902013     -0.05995242
O      -2.58986354     -1.68433206      0.16075156
O      -2.39999227      0.43768948     -0.62169605
H       0.06394949     -1.40568161      0.65950762
H      -0.47965202      1.30436608     -0.41920546
H       1.73590955      1.87805419     -0.27793766
H       2.12083972     -1.01683415      0.16856290
H       3.30877228      0.17610197      0.13543547
H      -3.34244742      0.25329553     -0.71866842
