17
b3lypvtz=-194359.18631768
C       1.70779480     -1.18862227      0.36389872
C       0.81226814     -0.33802487     -0.51970099
C       0.96685649      1.22641825     -0.47974287
C      -0.49970035      1.31279966     -0.06136548
O      -0.63075250      0.56803472      1.16235757
C      -0.65967529     -0.14941245     -0.08611510
C      -1.82354100     -1.04384747     -0.35102452
H       1.43262962     -2.24450530      0.30810405
H       1.63124544     -0.87092032      1.40408221
H       2.75307227     -1.10457340      0.05916155
H       0.85160084     -0.68390225     -1.55500896
H       1.17142121      1.65662342     -1.45965950
H       1.67186082      1.62534152      0.24990415
H      -1.21613009      2.10577451     -0.23011233
H      -2.75281125     -0.55956905     -0.05132391
H      -1.73064646     -1.97603955      0.21177373
H      -1.88489269     -1.29639317     -1.41124432
