18
b3lypvtz=-233519.52558995
C      -1.55996776     -1.34298058     -0.09491408
O      -0.20646141     -1.18302727     -0.49363345
C       0.53680688     -0.06507763      0.01263455
C       1.95122943     -0.29764339     -0.52359964
C       0.53745388     -0.01678231      1.54335011
C       0.02613677      1.24976241     -0.58183447
F      -1.18337265      1.65743498     -0.00765071
H      -2.18945163     -0.50578589     -0.40284444
H      -1.65982795     -1.47815078      0.98599034
H      -1.90834218     -2.24945858     -0.58741552
H       2.63444485      0.48543553     -0.19474718
H       1.94704445     -0.32879550     -1.61375485
H       2.31979045     -1.25680853     -0.16255183
H       1.23162386      0.74735069      1.89583454
H       0.85618590     -0.98005765      1.94233807
H      -0.44542444      0.22371274      1.94320913
H      -0.14292876      1.13053819     -1.65312719
H       0.74583131      2.05262658     -0.40935737
