16
b3lypvtz=-181127.17428122
C       0.90576107      1.41830899      0.44995976
C       0.46106679      0.32128093     -0.54349234
C       1.27104763     -0.88686376     -0.39492679
C       1.94179860     -1.87402698     -0.27102105
C      -1.04566819      0.03223456     -0.41980359
N      -1.89521357      0.39443918     -1.28958587
C      -1.51668467     -0.68646223      0.81377800
H       1.95031425      1.67548981      0.27850524
H       0.80822780      1.07923279      1.48020192
H       0.29846062      2.31389593      0.31673567
H       0.62040454      0.70412405     -1.55614544
H       2.53492724     -2.74808608     -0.16721106
H      -1.44435946      0.86086443     -2.07864825
H      -2.59666655     -0.80072552      0.77571002
H      -1.04614228     -1.66822122      0.88839222
H      -1.24727382     -0.13548489      1.71755157
