12
b3lypvtz=-249571.7393234
O       2.03427878      2.19606568      0.24192224
C       1.19783446      1.35717101      0.43857499
C       0.76564759      0.34312121     -0.61262970
N       0.20451437     -0.86927265     -0.05579966
C      -1.10714196     -1.10898133      0.21365431
O      -1.53777144     -2.12402045      0.70996900
O      -1.89632524     -0.06027924     -0.15079406
H       0.67233784      1.26985485      1.41225685
H       0.02114371      0.82622474     -1.24706607
H       1.62375399      0.10776095     -1.24253049
H       0.82202289     -1.60708484      0.23668501
H      -2.80039498     -0.33035993      0.05585757
