19
b3lypvtz=-218453.94937604
C      -2.83142413      0.29523802     -0.12111054
C      -1.52010869     -0.42625183      0.12495456
O      -0.46543060      0.45338828     -0.23891564
C       0.87278964      0.03661904      0.01941997
C       1.72428994      1.26112435     -0.27526568
C       1.26146678     -1.16380781     -0.84673251
O       1.06319671     -0.26321638      1.39578527
H      -3.67328039     -0.34662281      0.14411380
H      -2.88467677      1.20369775      0.47893585
H      -2.92587800      0.57312256     -1.17124927
H      -1.43530559     -0.69974617      1.18207181
H      -1.48325710     -1.34813832     -0.46840225
H       1.56765467      1.59051802     -1.30120719
H       2.77829274      1.03349048     -0.12386931
H       1.43421957      2.06427523      0.40008351
H       1.08540790     -0.94430303     -1.89932826
H       0.67988755     -2.05009400     -0.58472668
H       2.31627708     -1.39858239     -0.70736167
H       0.84726869     -1.18696298      1.55455924
