17
b3lypvtz=-194339.47789546
C       2.35537518     -0.25911825      0.00000971
O       1.33663520      0.72776481     -0.00001623
C       0.05132223      0.22508127     -0.00000493
C      -1.19632645      1.12844866     -0.00003001
C      -1.71890249     -0.33658780      0.00000717
C      -0.65181818     -0.65730188      1.08178936
C      -0.65181527     -0.65735767     -1.08175558
H       2.29910223     -0.89374338      0.89049840
H       3.30676092      0.26859568     -0.00000283
H       2.29910380     -0.89378854     -0.89044690
H      -1.37179987      1.71130773      0.90388478
H      -1.37179741      1.71126107     -0.90397536
H      -2.75508214     -0.65779280      0.00001413
H      -0.33851077     -1.69851826      1.15801906
H      -0.79551488     -0.20045915      2.06079869
H      -0.33850777     -1.69857805     -1.15793062
H      -0.79550933     -0.20056544     -2.06078885
