12
b3lypvtz=-202929.28416878
C      -1.37620560     -0.45381862     -0.14729674
C      -1.05514218      0.70675001      0.71282177
C       0.06045922     -0.26023396      0.32828031
C       1.04516714      0.20428134     -0.66558600
O       0.81031044      0.95185882     -1.58695301
C       2.41767665     -0.31345224     -0.47837722
N       3.48468287     -0.71913299     -0.32879060
H      -1.54808662     -0.26944807     -1.19799966
H      -1.90723921     -1.29349864      0.27683579
H      -1.00835897      1.68071473      0.24723404
H      -1.35752055      0.69412411      1.74980920
H       0.43425681     -0.92814448      1.09002214
