17
b3lypvtz=-191982.86349348
C       3.56438721      0.16013051      0.00168259
C       2.16948045     -0.26656260     -0.33179801
C       1.09591341     -0.03959239      0.41766633
C      -0.28957931     -0.49447104      0.07258179
N      -1.19243096      0.64078752     -0.04716884
C      -2.55682634      0.51654624     -0.11896580
N      -3.29024166     -0.51369348      0.03249642
H       3.97810629      0.79859813     -0.78356743
H       3.60359409      0.70756007      0.94361560
H       4.22933132     -0.70417625      0.08206163
H       2.04557511     -0.81364636     -1.26346944
H       1.19494440      0.50940049      1.35040586
H      -0.27313091     -1.09706646     -0.84384194
H      -0.67093741     -1.13958045      0.87089724
H      -0.79489964      1.49033876     -0.41185618
H      -3.04661035      1.47193290     -0.31066875
H      -2.74345969     -1.35806359      0.19511492
