14
b3lypvtz=-224577.20621857
N      -2.63771676     -0.53324986     -0.38477185
C      -1.56229792      0.01433338      0.02656789
N      -1.30017276      1.36205051      0.11835909
C      -0.40156374     -0.87139700      0.45404501
C       0.88108567     -0.54267341     -0.24380380
N       1.84395595     -0.04055239      0.41269119
O       2.95396314      0.21496207     -0.40955141
H      -3.34815975      0.16013633     -0.62207821
H      -0.48546009      1.67222166      0.61980867
H      -2.06373414      2.01307647      0.05778138
H      -0.69877254     -1.89732216      0.24309731
H      -0.24825113     -0.76802018      1.53060192
H       0.97096928     -0.72392736     -1.31428072
H       3.60699778      0.55102794      0.21253052
