14
b3lypvtz=-203703.8901653
C      -2.12079388     -0.29162173      0.37065510
C      -0.84647312     -0.05617434      0.09467283
C       0.36138114     -0.73047299      0.71123943
C       1.47234185     -0.03936869     -0.02965259
N       1.15672842      0.84136166     -0.88340319
C      -0.30444103      0.95258570     -0.91677020
O       2.73971909     -0.39102489      0.25272511
H      -2.91546178      0.24697890     -0.13084418
H      -2.42202911     -1.02850979      1.10442986
H       0.38848978     -1.81073356      0.54823356
H       0.44687176     -0.57012757      1.78907991
H      -0.66846739      0.75312071     -1.92848986
H      -0.60293502      1.97611311     -0.67270101
H       3.31506928      0.14787349     -0.30917477
