14
b3lypvtz=-224549.05006301
C      -2.19970404      0.94758183      0.21591237
C      -1.43817843     -0.31891481     -0.14840713
N       0.00715019     -0.08407604     -0.08918531
C       0.76745477     -1.03447377     -0.36450648
O       2.13881229     -1.00022736     -0.36159136
N       2.69192490      0.26442718      0.00194156
N       3.90393117      0.15603745     -0.03859687
H      -1.95076997      1.75587537     -0.47223503
H      -1.94010724      1.27419483      1.22338735
H      -3.27681806      0.77657586      0.17390900
H      -1.72445050     -0.64391258     -1.15441684
H      -1.71521033     -1.12534222      0.53903768
H       0.47719162     -2.04883901     -0.65298379
H       4.25877361      1.08109327      0.22814997
