11
b3lypvtz=-267228.2654708
C      -2.37701953     -0.07047499     -0.52853402
C      -1.12317056     -0.49921247     -0.41324359
F      -0.90176022     -1.83043044     -0.24609927
N      -0.02254560      0.31088765     -0.45246393
C       1.18621377     -0.02715786     -0.33324809
N       2.23080046      0.82787548     -0.45856253
F       1.63654681     -1.27656651     -0.10022868
H      -2.56905657      0.98063574     -0.66444592
H      -3.19809174     -0.76770290     -0.48738046
H       2.01439633      1.80877062     -0.47032022
H       3.12358684      0.54347567     -0.09607329
