9
b3lypvtz=-282070.07973176445
C      -0.18112456      0.12681670      0.07679577
N       0.60960556     -0.79646812      0.44243921
O       1.92369356     -0.39704309      0.14504310
N      -1.63811490     -0.08856568      0.30014687
O      -1.97195403     -1.13445400      0.81775010
O      -2.36684785      0.81519770     -0.06154824
O       0.10314279      1.28807318     -0.49052700
H       2.45312772     -1.14177866      0.44917786
H       1.06847170      1.32822197     -0.59031940
