11
b3lypvtz=-213007.50297947
N      -2.31314166      1.66535219     -0.82745533
C      -1.50228294      1.09487383     -0.24481988
C      -0.50403750      0.32156927      0.49354211
C      -0.14877422     -1.05174520     -0.16534933
N       1.27985560     -0.94689307     -0.47834248
C       1.65598727      0.18898580     -0.08735974
O       0.75897505      1.03261314      0.50399933
H      -0.83713103      0.21765847      1.52587749
H      -0.72229498     -1.23390478     -1.07291494
H      -0.32331194     -1.88077807      0.51978793
H       2.65595633      0.59236844     -0.16696515
