12
b3lypvtz=-202905.85354861
C       2.47361752      0.14070906     -0.65634406
C       1.36424183      0.06307193     -0.20199432
C       0.03642383     -0.02692080      0.31154400
C      -0.18964410     -0.19494288      1.62229281
C      -1.07518117      0.01949380     -0.69981380
N      -0.97204318     -0.26275747     -1.92526402
O      -2.30195817      0.35572094     -0.22225302
H       3.45695786      0.21137068     -1.05085390
H      -1.18913774     -0.31826247      2.01670789
H       0.62681461     -0.25324671      2.32697377
H      -0.01704730     -0.52566138     -2.15268220
H      -2.21294399      0.79132529      0.63158686
