14
b3lypvtz=-229567.29584825
C      -0.43796577      1.90098959      0.19989320
N      -0.32663620      0.47152310     -0.08001160
C       0.76923678      0.00658741     -0.78953261
C       1.59070102     -1.00460647     -0.53827380
F       0.96813858      0.74597182     -1.91274491
N      -1.21066987     -0.28745049      0.62322906
C      -1.22939146     -1.56104654      0.59738286
H       0.03554301      2.46491057     -0.59858591
H      -1.49155645      2.16275983      0.24967126
H       0.03898398      2.15464815      1.15116243
H       1.51971133     -1.56329461      0.37948580
H       2.34615934     -1.27082920     -1.26017976
H      -2.03271787     -2.02915330      1.15134037
H      -0.53953639     -2.19100987      0.04528572
