16
b3lypvtz=-204437.96085076
C      -1.80715045     -1.00402642     -0.56503099
C      -1.07068343     -0.15276708      0.15026663
N      -1.42644796      1.19779042      0.35532985
C       0.25654505     -0.48305859      0.74625467
C       1.31831318     -1.22626458     -0.02731629
C       1.47659178      0.24311699      0.22765006
O       1.33925394      1.11607445     -0.85516487
H      -1.44673705     -1.99863423     -0.77547754
H      -2.76975024     -0.72283701     -0.97280794
H      -2.39003053      1.41075499      0.13871666
H      -1.17844660      1.55107888      1.26930444
H       0.23123271     -0.65050054      1.81884291
H       1.07957362     -1.50225140     -1.04442616
H       1.95144752     -1.92137901      0.50652489
H       2.22152357      0.55269544      0.95414524
H       0.51615387      1.60978370     -0.73304456
