15
b3lypvtz=-214521.74153519
C      -0.35512445      1.08846361     -1.27595906
C       0.00479857      0.33652660      0.01851664
N       0.62395283      1.25605362      0.96003678
C       0.84706709     -0.89215396     -0.35885722
N       2.05546575     -1.10950178     -0.06719988
C      -1.29618566     -0.18442297      0.64839786
O      -2.06186575     -0.92158277      0.08817794
H      -0.97272156      1.95627968     -1.04465050
H      -0.90353941      0.43573040     -1.95220424
H       0.55364430      1.42695032     -1.77652492
H       1.35307260      1.80912695      0.52876444
H       1.01944308      0.78188417      1.76381684
H       0.31233290     -1.63589910     -0.95097772
H       2.44058246     -0.34218116      0.49202878
H      -1.48061973      0.18113339      1.67875826
