19
b3lypvtz=-192744.83290501
C       0.45105345      1.58384317      0.01097180
C       0.33311437      0.08201840      0.02249632
C       1.40174254     -0.72471962      0.00853558
N       2.73870923     -0.34299470     -0.11380974
C      -1.05428875     -0.52243130      0.02496949
C      -1.87432298     -0.13706254     -1.21093923
N      -1.78898821     -0.07234336      1.22441827
H      -0.42424585      2.03186122      0.48002477
H       1.32813094      1.93018912      0.56476561
H       0.53403449      1.98804230     -1.00317458
H       1.26129682     -1.80001661      0.02373974
H       2.93107944      0.62836007      0.07708918
H       3.39543574     -0.94960229      0.35117921
H      -0.93048507     -1.61437459      0.00747512
H      -2.85929569     -0.61035995     -1.18333996
H      -2.02478562      0.94190606     -1.25774855
H      -1.37083327     -0.46022992     -2.12226685
H      -2.72897117     -0.45261073      1.22696817
H      -1.32628441     -0.41083773      2.06010963
