11
b3lypvtz=-262192.63393317
C       2.31858266     -0.37457073     -0.02945981
N       1.26005219      0.30224044     -0.11173306
O       0.14159158     -0.39451932      0.32114004
C      -1.02838089      0.37425454      0.21006875
N      -1.14855287      1.55266675     -0.20929493
N      -2.05419987     -0.39506981      0.69686897
F       2.40138908     -1.62545418      0.41622639
H       3.26145214      0.05567403     -0.33400527
H      -0.24995605      1.95057403     -0.45923246
H      -2.96916395     -0.05314801      0.45676116
H      -1.93281404     -1.39264774      0.64526844
