12
b3lypvtz=-202929.55668359
N      -1.58973691      2.37829585     -0.31474420
C      -1.28093672      1.32660175      0.03816598
C      -0.91529795      0.00854552      0.47888942
C      -0.49217850     -1.02768681     -0.52074271
C       0.54139118     -0.46501200      0.42340390
C       1.59636528      0.42787263     -0.11992907
O       2.73274750      0.42576517      0.27710185
H      -1.47102764     -0.33028158      1.34257957
H      -0.44049910     -0.71949764     -1.55561462
H      -0.81912560     -2.04405657     -0.35974768
H       0.86445228     -1.08216129      1.24981464
H       1.27384618      1.10151497     -0.93887707
