12
b3lypvtz=-247127.26545
N      -1.21216355      1.21790395     -0.49791721
C      -0.36489032      0.32098944      0.09421974
N       0.87804731      0.18789919     -0.53550381
C       1.41046198     -0.95934689     -0.58628665
O       2.62923796     -1.15285975     -1.10073009
N      -0.62577201     -0.37115220      1.14789651
O      -1.93900505     -0.04023959      1.61325062
H      -0.77164484      1.90649101     -1.08323988
H      -1.97710855      1.53201304      0.07680922
H       0.95778843     -1.88217276     -0.23351365
H       2.97563413     -0.28714161     -1.36610278
H      -1.96028549     -0.47248383      2.47101799
