15
b3lypvtz=-214521.39215674
N      -2.95339491     -0.51005173     -0.54925655
C      -1.97425067      0.23166450     -0.24769282
C      -0.91659203     -0.02853228      0.80429385
C       0.47422895      0.16504201      0.28585300
O       0.74597024      1.44902547     -0.06017984
C       1.38910873     -0.80090820      0.14695639
N       2.67201430     -0.42955800     -0.38245293
H      -2.95485238     -1.36333785      0.01578800
H      -1.86563064      1.17210175     -0.78989931
H      -1.07446258      0.68241315      1.62411783
H      -1.02874562     -1.03651917      1.20514859
H       1.66402686      1.42774137     -0.38947132
H       1.16444580     -1.82408477      0.42404821
H       3.42753455     -0.64538397      0.25749974
H       2.87533738     -0.90202827     -1.25585385
