18
b3lypvtz=-205216.23663563
C       3.10883528     -0.07932826      0.00000378
C       1.65557564     -0.53407155      0.00001079
N       0.76287735      0.61977082      0.00001737
C      -0.48595805      0.43725259      0.00001497
C      -1.43911645      1.59792465      0.00002073
O      -1.00099002     -0.83415119      0.00000702
C      -2.40803604     -1.05375213     -0.00000701
H       3.78517136     -0.93650603     -0.00000054
H       3.32192528      0.52759330     -0.88101760
H       3.32193437      0.52759173      0.88102402
H       1.45772151     -1.16483544      0.87393111
H       1.45771212     -1.16483333     -0.87390893
H      -2.08495041      1.58866436      0.88051995
H      -2.08495015      1.58867496     -0.88047874
H      -0.85557979      2.51285294      0.00002601
H      -2.88407151     -0.63975880      0.89092068
H      -2.88405776     -0.63973554     -0.89093114
H      -2.53961974     -2.13319208     -0.00002246
