14
b3lypvtz=-180350.54990675
C       2.62259727      0.65247426     -0.45083465
C       1.77819309     -0.06323410      0.01043489
C       0.74222635     -0.93422251      0.56144928
C      -0.65648592     -0.54608776      0.12049629
C      -1.43852686     -1.35068491     -0.60011620
N      -1.09015384      0.68202704      0.64186420
C      -1.50089452      1.59318189     -0.13065462
H       3.37341354      1.28405124     -0.85507444
H       0.93906830     -1.96669694      0.26891495
H       0.78417531     -0.88982984      1.65393492
H      -2.45407034     -1.07227354     -0.84492235
H      -1.09474929     -2.32514170     -0.91615171
H      -1.87337048      2.52134160      0.29559317
H      -1.49809262      1.49572728     -1.22032074
