18
b3lypvtz=-181886.96811741
N      -2.61611410      0.00000116     -0.22705976
C      -1.32394722     -0.00000155      0.44760343
C      -0.32203242      1.08969293     -0.01908139
C       0.75262603      0.00000050     -0.09432067
C       2.04936339     -0.00000256      0.65652651
C       2.03747902      0.00000346     -0.85580068
C      -0.32203250     -1.08969245     -0.01908994
H      -3.15808054     -0.81213324      0.04959838
H      -3.15808045      0.81213345      0.04960473
H      -1.39707408     -0.00000585      1.54232336
H      -0.14338136      1.92712111      0.65643987
H      -0.60026482      1.46836489     -1.00435993
H       2.34819182     -0.90986431      1.16145847
H       2.34819198      0.90985511      1.16146572
H       2.32793036      0.90940376     -1.36621058
H       2.32793029     -0.90939279     -1.36621785
H      -0.14338146     -1.92712591      0.65642478
H      -0.60026494     -1.46835669     -1.00437144
