14
b3lypvtz=-227009.01541967
C      -1.42206985      0.83067241     -0.64885119
N      -0.28610940      0.08585726     -0.12134997
C      -0.48115478     -1.35566830     -0.03129230
C       0.82759440      0.77048783      0.23298076
O       0.94626196      1.98735858      0.13859994
C       2.07743149      0.06883128      0.80059212
O       2.26736171     -1.09838352      1.01401306
H      -1.66095264      0.48349668     -1.65710899
H      -1.17547378      1.88630432     -0.67591157
H      -2.29837643      0.67432930     -0.01488549
H      -1.33662374     -1.57174259      0.61422449
H       0.39849667     -1.84142586      0.36796325
H      -0.69772850     -1.76055455     -1.02344519
H       2.84124288      0.84043716      1.00457107
