11
b3lypvtz=-215380.98555147
C       1.98024509     -1.49686374     -0.13733193
C       1.28926580     -0.51560932     -0.10322262
C       0.47138221      0.64641702     -0.08872385
C       0.82166270      1.82633497      0.41039907
O      -0.76673352      0.53276374     -0.74973951
C      -1.70873582     -0.28266691     -0.20925330
O      -1.61997988     -0.87732685      0.82030343
H       2.58813877     -2.36701511     -0.15655335
H       1.79441712      1.96034577      0.85712958
H       0.14329903      2.66556954      0.36738034
H      -2.57398749     -0.29148111     -0.88299688
