11
b3lypvtz=-262035.22154385
O      -0.53224695     -0.62027963      2.10865474
C      -0.57506584     -0.92757150      0.94456092
C      -0.48342401      0.13999655     -0.13406463
O      -0.27995184      1.40717310      0.43767847
C       0.63923979     -0.23189631     -1.12136428
O       0.61340816     -1.24954855     -1.75420135
O       1.62265081      0.66787311     -1.18726708
H      -0.67457435     -1.96696663      0.59876724
H      -1.41651768      0.10818401     -0.71045941
H      -0.29887049      1.27615615      1.40206176
H       1.38525242      1.39677972     -0.58436638
