14
b3lypvtz=-229584.51189697
C      -2.96897772     -0.23034289      0.08640759
C      -1.74841037     -0.76030895     -0.00432219
C      -0.52139248     -0.00253853     -0.04169223
F      -0.66024625      1.35845000      0.01445348
N       0.63378594     -0.52151541     -0.12143494
N       1.72515731      0.27595814     -0.21816634
C       2.97079772     -0.35413511      0.18067496
H      -3.84591656     -0.86095378      0.11135385
H      -3.12089986      0.83862091      0.13663495
H      -1.60115716     -1.83102611     -0.05627783
H       1.59190243      1.22120041      0.12180562
H       3.79128495      0.32175785     -0.05806862
H       3.01115763     -0.59891958      1.24843965
H       3.10009441     -1.27298697     -0.38864093
