15
b3lypvtz=-240243.55441168
C       2.73518743     -0.05693659     -0.10287535
C       1.39400479     -0.61816350      0.35199517
C       0.22066891      0.28385799      0.08265727
O       0.31778686      1.39910315     -0.38431225
C      -1.19287454     -0.27090663      0.38504591
O      -2.12844100      0.74231011      0.25140647
O      -1.44429710     -1.35935480     -0.49392159
H       2.74205796      0.11635325     -1.17868953
H       2.94857313      0.89515009      0.38165338
H       3.53955787     -0.75250262      0.13603915
H       1.17436888     -1.58308595     -0.11286121
H       1.39428299     -0.81982589      1.43014178
H      -1.23821482     -0.69959178      1.38947263
H      -1.65332299      1.49377892     -0.14469899
H      -1.73329136     -0.98131474     -1.33358784
