19
b3lypvtz=-195137.58255928
C      -1.40598039      1.37314366     -0.26915301
C      -0.74586971      0.05161177      0.07343953
C      -1.56967136     -1.14841933     -0.35198151
C       0.03419091     -0.04909336      1.37519183
C       0.75876498     -0.06673273      0.05071115
C       1.66447802      1.07054196     -0.35867536
O       1.23811717     -1.31893455     -0.40093918
H      -0.85404147      2.23249079      0.10875517
H      -2.40785592      1.41289018      0.16553930
H      -1.51234577      1.49126619     -1.35063800
H      -1.76394893     -1.12220008     -1.42723027
H      -1.06503759     -2.08508676     -0.13037083
H      -2.53528403     -1.14154225      0.15998668
H      -0.02138908     -0.98431804      1.91706172
H       0.11501274      0.83404848      1.99703248
H       1.30595322      2.03654283     -0.00825967
H       1.76118332      1.10868684     -1.44536175
H       2.66370294      0.92202593      0.06117663
H       2.04312595     -1.52373252      0.08677411
