14
b3lypvtz=-201266.23598329
C       2.49980821     -0.22660323      0.09889775
N       1.51505505     -0.90411401     -0.35652240
N       0.26698123     -0.42304921     -0.20673396
C      -0.97558317     -1.04857146     -0.65518125
C      -1.71439670      0.18045611     -0.05564361
C      -0.32958028      0.70000878      0.35119904
N       0.20175828      1.68913093      0.93748282
H       2.39333098      0.72623908      0.60524681
H       3.48203430     -0.65757838     -0.04876438
H      -1.18438641     -2.00354416     -0.17162335
H      -1.04585162     -1.15700466     -1.73800754
H      -2.37381447     -0.03863347      0.78159338
H      -2.23096706      0.80733926     -0.77952626
H      -0.50438832      2.35592438      1.23758297
