15
b3lypvtz=-191225.36799231
N       2.34735225      0.01889174      0.00372320
C       0.95372495      0.11058401     -0.01186202
C       0.24904374      1.25554224     -0.03102930
C      -1.19847038      1.23176843      0.09129133
C      -1.83958903      0.05672200     -0.01980719
N      -1.13213678     -1.11819749     -0.25261658
C       0.24718817     -1.20493472      0.21407518
H       2.72114349     -0.76554292     -0.51218224
H       2.82171744      0.87408537     -0.24711981
H       0.75994319      2.20621453     -0.13052836
H      -1.75468152      2.14925825      0.20644804
H      -2.91677128     -0.03290973     -0.01248136
H      -1.66069377     -1.96506038     -0.12741448
H       0.75237878     -2.00225022     -0.34140210
H       0.32550374     -1.47396812      1.28529670
