13
b3lypvtz=-213768.78513008
N       2.54014026     -0.38971936     -0.41830845
C       1.50373982     -0.36109728      0.08148184
C       0.16968939     -0.30121474      0.67055417
C      -0.75289855     -1.30992130     -0.03035973
O      -1.88777761     -1.06190423     -0.32804649
C      -0.40657837      1.14443882      0.68931348
N      -0.54131094      1.80904869     -0.58741849
H       0.25634676     -0.66230156      1.70512246
H      -0.30402365     -2.30152950     -0.22646410
H      -1.38845577      1.08602226      1.15794793
H       0.22909875      1.74712890      1.33871651
H       0.34586714      1.91068096     -1.06361848
H      -1.18598522      1.32182834     -1.19515364
