14
b3lypvtz=-203712.97375399
C      -2.48817234     -0.53489966      0.00000323
C      -1.09980965      0.00455415     -0.00000177
C      -0.62217003      1.28774645      0.00000577
C       0.80924360      1.24362432      0.00000251
C       1.14859435     -0.08322810     -0.00000682
O       2.33695960     -0.74902117     -0.00001203
N       0.00846986     -0.83192201     -0.00000884
H      -0.00413009     -1.83639107     -0.00002983
H      -2.69453510     -1.14942059      0.88191862
H      -2.69455510     -1.14939303     -0.88192671
H      -3.20119891      0.28819305      0.00002430
H      -1.23037239      2.17705888      0.00002143
H       1.48960894      2.07838867      0.00001691
H       3.04898227     -0.10290087     -0.00004075
