14
b3lypvtz=-250315.63106551
N       2.59304569      0.72200466     -0.46280440
C       1.41857329      0.33606999      0.30251602
C       0.29321654     -0.07120878     -0.62364774
O       0.43792310     -0.39769660     -1.77676449
O      -0.89236374     -0.06311054      0.00869967
C      -2.03550697     -0.49889210     -0.77461534
O      -3.15285546     -0.46861468      0.03595798
H       3.43969385      0.56172277      0.06541110
H       2.63830404      0.16799420     -1.31038769
H       1.56885361     -0.52009530      0.97779442
H       1.06774147      1.16020972      0.92778355
H      -2.10973174      0.15259405     -1.64758539
H      -1.87639219     -1.52768906     -1.08961438
H      -3.39050151      0.44681166      0.21725667
