16
b3lypvtz=-204466.32954378
C       3.33555246      0.23804540     -0.00014807
C       2.03081723     -0.49008947     -0.00002569
C       0.83243784      0.09883053      0.00028287
N      -0.34757438     -0.63918952      0.00040730
C      -1.48565680     -0.07340848      0.00027585
C      -1.82193869      1.39142068     -0.00012715
O      -2.59575673     -0.85172231      0.00001068
H       3.93682996     -0.02350480      0.87574909
H       3.93636056     -0.02290990     -0.87654604
H       3.19400387      1.31982535      0.00025334
H       2.05837729     -1.57468859     -0.00023771
H       0.77579488      1.18760025      0.00033469
H      -2.89963379      1.52892999      0.00537331
H      -1.40822692      1.87983682     -0.88335876
H      -1.39860126      1.88292684      0.87672284
H      -2.27890250     -1.76760278     -0.00026153
