19
b3lypvtz=-195152.91087125
C       2.45421643      0.02102491      0.09640546
C       0.99160492      0.03318359     -0.34390185
C       0.23904339      1.27289029      0.15859934
C      -1.25016894      1.19130916     -0.19119855
C      -1.83108421     -0.14093569      0.27090656
O      -1.10577220     -1.24238310     -0.25998738
C       0.26034928     -1.22594637      0.12850698
H       2.98188372     -0.85263279     -0.29229924
H       2.53755612      0.00305360      1.18615228
H       2.97776558      0.91025043     -0.25965671
H       0.95438370      0.03318158     -1.43880243
H       0.68447111      2.18032670     -0.25663993
H       0.35320826      1.33902276      1.24717578
H      -1.80419553      2.01351992      0.26925152
H      -1.38296255      1.27696875     -1.27319085
H      -2.85997900     -0.26640647     -0.06616187
H      -1.82587614     -0.19144576      1.37049720
H       0.70770098     -2.12265137     -0.30230695
H       0.33610609     -1.30481814      1.22491967
