13
b3lypvtz=-211339.15080152
N       3.14731974     -0.44018351      0.00027857
C       2.37314688      0.56541643     -0.00007880
C       0.89500740      0.56966429     -0.00024624
N       0.26779809     -0.54580563     -0.00013018
N      -1.07638299     -0.63499696     -0.00024634
C      -2.03148621      0.37040000      0.00024197
N      -3.29108380      0.21743352      0.00011762
H       2.59700330     -1.30327997      0.00046563
H       2.82748236      1.55748222     -0.00030275
H       0.40981813      1.54344851     -0.00051598
H      -1.40064102     -1.58944986     -0.00030547
H      -1.62632070      1.37625651      0.00084953
H      -3.56461717     -0.76728855     -0.00049857
