15
b3lypvtz=-191164.85812598
N       0.64761489     -0.08316426     -0.17382655
C       0.60853570      0.67676387     -1.37267773
C       0.81527717      2.18045604     -1.49084685
C       0.39446584      2.00507665     -2.97932708
N       1.47351944      1.18784349     -3.61833181
C       1.03809165      0.10509715     -2.73733545
C      -0.33823987      0.67435238     -2.57821995
H      -0.20646329     -0.01039797      0.36443543
H       0.84493551     -1.06130571     -0.33450959
H       0.06108564      2.72812282     -0.92385776
H       1.80760175      2.59862279     -1.29278068
H      -0.01279393      2.82880598     -3.55621803
H       2.40951062      1.53885307     -3.41326155
H       1.34165234     -0.92589069     -2.86317532
H      -1.31679346      0.26426439     -2.77156706
