11
b3lypvtz=-238680.66319529
O       3.22374596     -0.93754987      1.12311519
C       2.34443374     -0.17295351      1.44042661
C       1.11568514     -0.00386022      0.70155269
C       0.07554040      0.16238546      0.11912230
C      -1.15864889      0.36927376     -0.65360017
O      -0.94124494      0.24598571     -2.03694517
O      -2.10424492     -0.55231136     -0.16462641
H       2.42775272      0.46213748      2.34031297
H      -1.50496921      1.39872742     -0.52246595
H      -0.53203827     -0.61294638     -2.20290089
H      -2.94581173     -0.35898849     -0.59399118
