15
b3lypvtz=-191209.74682167
C       2.81172228     -0.10266565     -0.56424906
N       2.20084045     -0.14363058      0.54256648
C       0.84442457      0.19527744      0.58607823
N      -0.01183862     -0.28889383     -0.21381784
C      -1.36633661      0.07920209     -0.09976046
C      -1.77399486      1.34850898     -0.18299261
C      -2.29982908     -1.09116810      0.01994957
H       3.85003795     -0.42124918     -0.60767011
H       2.34049154      0.24033101     -1.48863892
H       0.58134424      0.85153282      1.41859523
H      -2.82581830      1.59606193     -0.16543136
H      -1.07166888      2.15936409     -0.31895946
H      -2.14993698     -1.77748274     -0.81574020
H      -3.33951485     -0.76936116      0.03483115
H      -2.09402783     -1.65443613      0.93371137
