13
b3lypvtz=-211348.05579474
N       3.95120395     -0.38353928      0.19176507
C       2.81625509     -0.35123326      0.37306622
C       1.37269504     -0.33559635      0.59943487
N       0.67052016      0.08279466     -0.60382201
C      -0.71165405      0.16883218     -0.53575418
N      -1.33296269      0.08838305      0.56804421
N      -2.72711527      0.22182505      0.53098999
H       1.13982856      0.36592286      1.40226005
H       1.05554471     -1.32355735      0.95563378
H       1.02644259     -0.31116046     -1.46134099
H      -1.19613317      0.35085484     -1.49761400
H      -3.03303381      0.93049063     -0.13144690
H      -3.03169111      0.49598343      1.45428388
