18
b3lypvtz=-181921.18728834
C      -2.39697777     -0.06275862     -0.03281301
C      -0.91941315     -0.04396172      0.33628949
C      -0.14429312     -1.21686469     -0.27397503
C       1.34192823     -1.18207364      0.11204818
C       1.88726884      0.21916397      0.03369399
C       1.08184524      1.28055436     -0.07396002
N      -0.30686316      1.19969853     -0.12932252
H      -2.92221164      0.79448811      0.39562044
H      -2.87722003     -0.96651154      0.34507837
H      -2.52218189     -0.02829552     -1.11627416
H      -0.82926204     -0.11845163      1.43165703
H      -0.24199313     -1.15680212     -1.36136196
H      -0.60260842     -2.15645465      0.04093530
H       1.90383605     -1.84395335     -0.55388211
H       1.48039501     -1.59354198      1.11876904
H       2.95783987      0.36987528      0.03127966
H       1.48194219      2.28262101     -0.16610527
H      -0.78636509      2.03387520      0.17102457
