16
b3lypvtz=-227751.83259573
C      -2.41718113      1.05620480      0.00985634
C      -1.98649912     -0.33215879      0.45020497
O      -1.05464909     -0.93089968     -0.46575548
C       0.27019681     -0.87202305     -0.11695172
O       0.76185322      0.47191271     -0.29786518
C       2.06781155      0.71052176     -0.03434575
N       2.98709272     -0.06557841      0.34841617
H      -3.18652214      1.43684291      0.68525200
H      -2.83423084      1.02128937     -0.99687671
H      -1.57713177      1.74826958      0.01133722
H      -1.54605660     -0.30881573      1.45239588
H      -2.84389589     -1.00622452      0.47694044
H       0.81321804     -1.54394564     -0.78411165
H       0.43500312     -1.15519012      0.93136819
H       2.27821877      1.76289733     -0.20632430
H       2.68868835     -1.02895152      0.47811859
