16
b3lypvtz=-227740.40983369
C       2.92346709     -0.46244499      0.06428824
O       1.70001516      0.02853864     -0.44171771
C       0.59077400     -0.34597372      0.34311804
C      -0.65646330      0.31865311     -0.22000317
O      -0.58352445      1.70562436      0.09905745
C      -1.91128198     -0.28962674      0.37240639
N      -2.74873828     -1.04271838     -0.20453862
H       2.93276780     -1.55924765      0.10629617
H       3.70907977     -0.12791336     -0.61043875
H       3.12747971     -0.07423643      1.06959269
H       0.46008276     -1.43706982      0.33092828
H       0.72391729     -0.02980207      1.38658324
H      -0.65654605      0.16510029     -1.30622119
H      -1.28145113      2.17012862     -0.37311490
H      -2.09992909     -0.01611679      1.41362454
H      -2.47294930     -1.21847407     -1.17497870
