16
b3lypvtz=-225362.657317
N       0.21343395     -1.70772292      0.25601941
C       0.78234819     -0.58856144      0.00762044
N       2.13678905     -0.38649431     -0.08314282
C      -0.08382708      0.64396120     -0.30823690
N       0.47205788      1.93166143      0.10160218
C      -1.50216089      0.50844483      0.27408072
O      -2.22485434     -0.57728038     -0.25614053
H       0.87563434     -2.46320726      0.42233763
H       2.48228234      0.55197872      0.01658734
H       2.75195883     -1.11585616      0.23674354
H      -0.18944860      0.66892816     -1.39663020
H       0.77162076      1.95249343      1.06699636
H       1.20904627      2.27503593     -0.49632197
H      -2.04309128      1.42116179      0.02740938
H      -1.42884216      0.45083978      1.37065501
H      -1.66568925     -1.35617381     -0.08591059
