14
b3lypvtz=-203696.32349919
C      -1.01402693      1.80285783     -0.12412488
C      -0.48703278      0.57922633     -0.04849909
C      -1.34118449     -0.57269801     -0.02979631
N      -2.01551398     -1.50729479     -0.02317976
C       1.01036262      0.32500997      0.04018746
C       1.53458427     -0.52745189     -1.10482404
O       1.33675300     -0.36010578      1.24610956
H      -0.37457977      2.67581422     -0.13533836
H      -2.08104338      1.96354744     -0.18414019
H       1.49967859      1.30582327      0.01559068
H       2.60601510     -0.68027410     -0.97937720
H       1.04595586     -1.50167137     -1.11031573
H       1.35771761     -0.03843454     -2.06269249
H       1.02732428      0.15837141      1.99614936
