16
b3lypvtz=-204437.93688617
C      -0.40292310      1.70744683      0.13031220
C      -0.12417029      0.23478681     -0.11279798
C       0.97991906     -0.43520275      0.72839589
C       1.66833106     -0.70205575     -0.61783744
O       0.64469137      0.02985353     -1.34218587
C      -1.41329118     -0.54067067     -0.23224017
N      -1.79966957     -1.36136089      0.64838089
H       0.53128521      2.26915004      0.12798683
H      -0.89929383      1.84710564      1.09260613
H      -1.04651270      2.11235767     -0.65327188
H       1.51231351      0.25091524      1.38349697
H       0.65153264     -1.30438260      1.29007962
H       2.65244660     -0.25180220     -0.75823444
H       1.70367810     -1.74954877     -0.92552597
H      -1.96593456     -0.32292207     -1.15436836
H      -2.69240233     -1.78367009      0.39520356
