15
b3lypvtz=-216908.78981408
C       2.15966519      0.60075169      0.32465971
O       1.28073569      0.00572327     -0.62356158
C      -0.02940030     -0.15988681     -0.16872797
C      -0.86738267      1.06928254     -0.19851495
O      -1.99745220      1.14191079      0.22002906
C      -0.70723897     -1.45346382     -0.56611020
C      -0.33628580     -1.22754301      0.86231544
H       1.82112197      1.59769459      0.62457423
H       2.25947470     -0.01883001      1.22086277
H       3.12905517      0.68847769     -0.16123905
H      -0.36915962      1.93726238     -0.67666039
H      -0.09487787     -2.12427994     -1.15123856
H      -1.74939350     -1.38879021     -0.84418765
H      -1.12470905     -1.00262424      1.56676241
H       0.51422427     -1.76755692      1.25314072
