18
b3lypvtz=-202802.60544901
C      -3.01288156     -0.46332134      0.07948544
N      -1.75346050      0.03677217     -0.44657629
C      -0.58695208     -0.45287895      0.26281463
C       0.67589963      0.25935402     -0.22958566
N       0.54969137      1.70037985      0.04204591
C       1.92084518     -0.33749163      0.38925363
N       2.86864759     -0.94567662     -0.18927584
H      -3.84175208     -0.01415693     -0.46803952
H      -3.16196986     -0.26432918      1.15338354
H      -3.07123669     -1.54497965     -0.06360121
H      -1.73288152      1.04944977     -0.43453324
H      -0.66287338     -0.32271312      1.35988654
H      -0.48425322     -1.52761997      0.08652606
H       0.72690910      0.13643019     -1.31470629
H       1.31462919      2.21481461     -0.37780553
H       0.58336875      1.87928479      1.04077051
H       2.00833531     -0.19491831      1.47241444
H       2.68868378     -1.02247872     -1.19433412
