15
b3lypvtz=-193601.22726899
C      -2.88370869     -0.88180736      1.42946854
C      -2.03764021     -0.57951001      0.63447506
C      -0.99108097     -0.20112434     -0.30713340
C       0.22060845      0.45470988      0.38059575
C       1.32001483      0.85855193     -0.61283228
C       2.00840832     -0.33231504     -1.22901774
O       2.11905792     -0.53496527     -2.41044625
H      -3.63903129     -1.15422889      2.12334600
H      -1.40452702      0.48819784     -1.04928115
H      -0.67221237     -1.08716693     -0.86400943
H      -0.11376421      1.33764802      0.92591139
H       0.62638694     -0.23269017      1.12685001
H       0.93192325      1.49265905     -1.41120132
H       2.08700828      1.42565283     -0.07347144
H       2.42855678     -1.05361154     -0.49325375
