10
b3lypvtz=-246376.6445661209
C       0.59108442     -0.86763128     -0.64944289
N       1.67843852     -1.53035093     -0.48657509
N       2.64885217     -2.12061989     -0.33982693
N       0.18335638      0.08261466      0.30870293
C      -0.96679399      0.78710674      0.14411763
O      -1.72750145      0.68343962     -0.79118049
O      -1.14982117      1.63838629      1.19029039
H      -0.02202456     -1.02805062     -1.51730055
H       0.74139518      0.25097767      1.12854001
H      -1.97698549      2.10412773      1.01267500
