20
b3lypvtz=-205962.75836407
C       3.37275350      0.41783915      0.24135010
C       1.91164781      0.56039108     -0.16156104
N       1.22937603     -0.73039001     -0.12432482
C      -0.17178493     -0.70287256     -0.53779898
C      -1.08921083     -0.37006818      0.64184933
O      -2.46126477     -0.35892595      0.27857335
C      -2.92166821      0.86971654     -0.24478188
H       3.90769803     -0.23836568     -0.45003665
H       3.87517826      1.38609401      0.23189794
H       3.45597175     -0.00846901      1.24144227
H       1.84523520      1.03454770     -1.15543400
H       1.40848198      1.23605441      0.53429016
H       1.74140846     -1.39385764     -0.69102309
H      -0.34900228      0.00553149     -1.36166732
H      -0.44942956     -1.69228975     -0.90466640
H      -0.80901894      0.58968786      1.09345401
H      -0.97158694     -1.13994124      1.40506521
H      -2.42741007      1.13933068     -1.18502534
H      -2.77460341      1.68834922      0.47120515
H      -3.98810809      0.75749189     -0.43498702
