10
b3lypvtz=-246375.27292454
O       1.19358726      0.06872393     -0.25783802
C       0.52992629     -0.76246621     -1.09396230
N       0.72460873     -2.06392158     -1.19057091
N      -0.14975431     -2.42560645     -2.13007407
H      -0.24192203     -3.37794289     -2.43163361
N      -0.89426551     -1.45021326     -2.64604177
C      -0.47817491     -0.37629632     -1.99936456
O      -0.99681675      0.84738517     -2.23828462
H       1.82855597     -0.44873374      0.25137854
H      -0.55704472      1.48447136     -1.66490868
