14
b3lypvtz=-180344.15650765
C       3.21172925      0.71108121      0.00937617
C       2.47015685     -0.39919918     -0.02602596
C       1.05276806     -0.43505827     -0.02379199
C      -0.15241695     -0.50755394     -0.02782456
C      -1.58332870     -0.59041885     -0.00385768
C      -2.40380747      0.46442525     -0.67020492
N      -2.37320547      0.38368107      0.78942249
H       4.29115745      0.65518308      0.00876594
H       2.76233361      1.69429380      0.04129436
H       2.96440115     -1.36551592     -0.05648947
H      -1.98711617     -1.59512199      0.03465272
H      -1.87036337      1.26645355     -1.16421810
H      -3.34443651      0.18225527     -1.12630695
H      -1.74663572      1.08901292      1.16430097
