12
b3lypvtz=-249555.83758699
N      -0.17044779      1.49586280     -0.65536028
C      -0.14293342      0.32318487     -0.18620429
C       1.10455965     -0.53031765     -0.02211110
O       2.27822857      0.17754218     -0.37992698
C      -1.41840370     -0.35350991      0.25328179
O      -1.42723104     -1.47358944      0.70742796
O      -2.51909633      0.39194247      0.09279690
H       0.78284975      1.77040115     -0.91320126
H       1.03107323     -1.39607417     -0.68309749
H       1.14830231     -0.92428831      0.99623179
H       2.59776683      0.66287676      0.38637340
H      -3.26456805     -0.14383076      0.40358955
