16
b3lypvtz=-181111.14212953
C       1.81201241      0.54710206     -0.10224156
C       0.70735428     -0.43654274     -0.41639195
C      -0.68253302     -0.00032223     -1.01216951
C      -1.18427320      0.98577632      0.05879439
C      -0.92246383      0.33101937      1.19022153
C      -0.29270296     -0.97539180      0.67277439
N      -1.16874966     -1.33174913     -0.50043033
H       2.60618896      0.05944049      0.46767301
H       1.45617150      1.40045356      0.47442019
H       2.26119222      0.92356761     -1.02408821
H       1.09093153     -1.27844358     -0.99244286
H      -0.82854120      0.23139919     -2.06451575
H      -1.60146303      1.96797215     -0.09833010
H      -1.06572390      0.62786585      2.21724952
H      -0.03206645     -1.76076188      1.37822608
H      -2.15533364     -1.29138522     -0.24874885
