14
b3lypvtz=-203640.91364708
C       1.43733656     -0.02129958      0.75158253
C       0.73174045     -0.69575118     -0.40823189
C       0.39750096      0.75467718      0.02002618
C      -0.99119451      0.31018451      0.39144227
C      -0.66763286     -1.08437479     -0.02219545
N      -1.60470766     -0.26856906     -0.83524311
O       0.71791530      1.94797656     -0.59902587
H       2.44925177      0.29510001      0.53404259
H       1.28123737     -0.35793658      1.77015127
H       1.25699056     -1.00901841     -1.29860779
H      -1.60653191      0.64930092      1.21359117
H      -1.00067256     -1.99598612      0.45432526
H      -2.55314964     -0.55470636     -0.59569085
H       0.15191617      2.03040293     -1.37616629
