15
b3lypvtz=-191167.09156397
C      -0.74815641     -1.03376738      0.24939861
C      -0.27310277     -0.11130647     -0.91229863
C      -1.42269698      0.86092995     -0.54350499
C      -0.74943096      0.42605047      0.78093575
N       0.57703225      0.66444857      0.07669991
C       1.77960151      0.19251991      0.58364815
N       2.71416784     -0.42753061     -0.01546357
H      -0.00017708     -1.70371414      0.66688492
H      -1.71636519     -1.51983637      0.13025175
H       0.08901617     -0.38261461     -1.90062382
H      -2.43360937      0.49904726     -0.71478085
H      -1.28061091      1.89890165     -0.83233991
H      -0.93176690      0.79048119      1.78940785
H       1.94196421      0.50004259      1.61882707
H       2.45413458     -0.65365200     -0.97704224
