16
b3lypvtz=-204412.17477338
C      -2.03036151      0.93015743      0.03671728
C      -0.71269118      0.48356615     -0.57799947
C       0.11234334     -0.25106760      0.46153304
C      -1.11070611     -0.89380179     -0.10569331
O      -2.29994295     -0.41522513      0.53388665
C       1.46842573     -0.76854210      0.02404201
N       2.56424052      0.20471261      0.02449035
H      -1.99178322      1.66885802      0.84128965
H      -2.78460638      1.21631094     -0.69858165
H      -0.31114077      0.80711147     -1.52719887
H       0.05197442      0.08839376      1.49279202
H      -1.14680405     -1.85612593     -0.59880951
H       1.76318092     -1.59736444      0.67190348
H       1.39126126     -1.18456168     -0.98481947
H       2.71090408      0.56515744      0.96061631
H       2.32570586      1.00242085     -0.55416850
