11
b3lypvtz=-259580.29760458
N       2.24899200     -0.64212650     -0.28904886
C       1.84777813      0.43569485      0.18544966
O       0.53550344      0.89826976      0.39329741
C      -0.57071307      0.18425616      0.08289590
O      -1.70194233      0.85837100      0.38341232
N      -0.56297284     -0.97637133     -0.42795558
O      -1.82126598     -1.53604134     -0.67031161
H       1.48742862     -1.26456323     -0.55959709
H       2.50511995      1.22619613      0.52992701
H      -1.47097850      1.71602312      0.76006762
H      -2.49694942     -0.89980863     -0.38803677
