15
b3lypvtz=-193586.78958749
C       2.87069353     -0.02474577     -0.80288188
C       1.80356410      0.11363943     -0.26841835
C       0.50145016      0.26526956      0.34298448
C      -0.19557535     -0.95768410      1.01689420
C      -1.54707259     -0.43679596      0.46687951
C      -0.76644283      0.38574181     -0.56778607
O      -1.29243783      1.66407703     -0.82776558
H       3.81738094     -0.14647111     -1.26665989
H       0.49786251      1.11402913      1.03042457
H      -0.08501920     -1.04599867      2.09497870
H       0.11061834     -1.89177997      0.54934689
H      -2.26915569     -1.16093924      0.09551712
H      -2.03893613      0.23147339      1.17387303
H      -0.61174344     -0.17909856     -1.49200805
H      -0.79518652      2.06918302     -1.54557869
