15
b3lypvtz=-214525.61082136
C      -2.33738538      0.54571260     -0.82093867
O      -0.97941142      0.10551140     -0.95569461
C      -0.41960747     -0.46888772      0.13119176
N      -1.06890008     -0.62158393      1.20605017
C       1.01631339     -0.85143200     -0.15855596
C       1.90054586      0.34961871     -0.37188281
N       2.94628847      0.51489460      0.32057964
H      -2.59938042      0.98046877     -1.78164930
H      -2.99021726     -0.29432862     -0.58744329
H      -2.42409678      1.28512901     -0.02576512
H      -0.49463874     -1.05706888      1.92043744
H       1.02339218     -1.45295386     -1.07317982
H       1.42293052     -1.44575182      0.65655334
H       1.57022970      1.04210944     -1.15227889
H       3.43393740      1.36856229      0.04910190
