15
b3lypvtz=-214482.20885249
O       3.45749790      0.17047216     -0.31898822
N       2.15975198     -0.41403758     -0.31598564
C       1.28363632      0.47273946     -0.59358861
N      -0.03711287      0.15403948     -0.73430058
C      -1.17396510      1.00054536     -0.32620892
C      -1.99210517     -0.29361299     -0.08289923
C      -0.66562322     -1.07857668     -0.23497035
H       4.01579095     -0.58140921     -0.10251861
H       1.54973929      1.51422044     -0.76779089
H      -1.53368371      1.67566911     -1.10393338
H      -0.98609898      1.57322246      0.58740978
H      -2.48539517     -0.36851760      0.88226467
H      -2.71064737     -0.50171851     -0.87226387
H      -0.65007362     -1.90647803     -0.94374870
H      -0.23151123     -1.41645788      0.71052253
