16
b3lypvtz=-204458.32898624
C       1.76861595     -0.12467364     -0.96184538
C       0.61523758     -0.02514620      0.02345749
O       1.23104930      0.12897235      1.31509836
C      -0.31515268      1.15222418     -0.22733827
N      -1.56052292      0.92059929     -0.21003476
C      -1.77765752     -0.52094422      0.00405240
C      -0.39065301     -1.20037932     -0.03564112
H       2.40212253      0.76008628     -0.89351543
H       1.40016584     -0.21510222     -1.98387138
H       2.38043455     -0.99781112     -0.73187162
H       0.54204529      0.27487710      1.97227636
H       0.06893663      2.16192112     -0.35414775
H      -2.29702836     -0.64766685      0.95737913
H      -2.45412966     -0.89333304     -0.76608353
H      -0.26503951     -1.75869804     -0.96321942
H      -0.21936001     -1.89058168      0.78904595
