13
b3lypvtz=-213759.5697895
N      -2.45781492     -1.51519860     -0.09866907
C      -1.68658935     -0.67777370      0.06559253
C      -0.69632612      0.38865246      0.31267776
N      -1.23530645      1.65062252     -0.21505131
C       0.61384155      0.06537093     -0.35095937
C       1.73111796     -0.10663732      0.34626508
O       2.92171281     -0.38557450     -0.24984553
H      -0.53835114      0.39910193      1.40120340
H      -2.11748332      1.88176918      0.22755879
H      -0.57962194      2.39810547     -0.02143974
H       0.61741904     -0.01125181     -1.43036352
H       1.74262717     -0.03537863      1.42998977
H       3.60812869     -0.47988294      0.41549523
