11
b3lypvtz=-238692.89260192
O       2.73485025      0.06724080     -0.34408162
C       1.67687377      0.59568204     -0.14005566
C       0.50871157     -0.11256079      0.51266822
O      -0.58212405      0.76481063      0.85567015
C      -1.54200295      0.08649701      0.00882399
C      -0.45023435     -0.88127241     -0.43778513
O      -0.36197237     -1.80725827     -1.17381270
H       1.45985339      1.64358579     -0.42924629
H       0.85978023     -0.71945086      1.35211938
H      -2.35998781     -0.36775102      0.57364698
H      -1.94384768      0.73057707     -0.77794733
