10
b3lypvtz=-228083.24625248
C       0.58504174      1.12336964     -0.81211441
C       0.45280324      0.04788081     -0.02932981
C       1.60252919     -0.63506546      0.48238505
N       2.54051896     -1.16953742      0.88351003
C      -0.88933695     -0.47405145      0.33509274
N      -1.96941747      0.02424458     -0.04165872
F      -0.80957939     -1.56505023      1.13187406
H       1.56000748      1.50374466     -1.07843838
H      -0.29554584      1.62430377     -1.18743413
H      -2.77702095     -0.47983888      0.31611357
