17
b3lypvtz=-191946.73653687
C      -2.11077988     -0.12915489      0.07870199
C      -1.03098013      0.55598778      0.94641247
C      -0.01214537      0.05950158     -0.10383555
C       1.00659291     -1.03569369      0.31184476
N       2.05907372      0.00605292      0.32876757
C       1.21724055      0.89242258     -0.51377981
N      -1.12324421     -0.19971933     -1.02657297
H      -3.00539180      0.44921297     -0.15690251
H      -2.41571429     -1.10266002      0.47533248
H      -1.12210367      1.64098711      0.95902778
H      -0.89990648      0.19225713      1.96295944
H       1.12444795     -1.78374827     -0.48400143
H       0.85122484     -1.55049583      1.26314835
H       2.94508938     -0.26667436     -0.07682049
H       1.40034435      0.80798160     -1.59173327
H       1.23137097      1.94681495     -0.22917912
H      -1.08001984     -1.07094523     -1.54173269
