14
b3lypvtz=-229572.31492002
C      -2.57970045     -0.76146731      0.00003747
C      -1.80318500      0.32087971     -0.00000042
N      -0.40751736      0.36413337     -0.00003226
C       0.29231466      1.64561024     -0.00001500
N       0.22440234     -0.81949832     -0.00002693
C       1.46207481     -1.02685536     -0.00001668
F       2.44913203     -0.08530182     -0.00000476
H      -3.65153369     -0.63735785      0.00005064
H      -2.17421386     -1.76104782      0.00005096
H      -2.23978865      1.31031237     -0.00001269
H       0.91811818      1.75464149      0.88598526
H      -0.45247805      2.43714591     -0.00005244
H       0.91818469      1.75462184     -0.88596909
H       1.86395635     -2.02818345     -0.00001808
