14
b3lypvtz=-203651.16016143
C       1.96402595     -0.72562857     -0.10055065
C       0.68503972     -0.42263240      0.04880214
C      -0.05077026      0.87153142      0.40369297
O       0.10064173      1.91696930     -0.53942475
C      -1.36466950      0.06374599      0.38650017
N      -1.54496724     -0.59431690     -0.89107743
C      -0.59392868     -1.19301481      0.05518336
H       2.72929555      0.03861593     -0.06138000
H       2.28722462     -1.74534942     -0.26828265
H       0.21081714      1.20644076      1.41323368
H      -0.36735272      2.69581279     -0.22077296
H      -2.21767481      0.19089752      1.03832957
H      -1.07594730     -0.09284396     -1.64142802
H      -0.76163420     -2.21012765      0.37727456
