16
b3lypvtz=-204472.53712478
C      -2.06846229     -0.57539451      0.71621950
C      -0.67187457     -0.72930084      0.19787014
C       0.20248015      0.25178101     -0.04992483
C      -0.03191039      1.72446755      0.14618229
N       1.50988397      0.00747701     -0.54863568
C       2.12181193     -1.16744164     -0.87808398
O       1.65162775     -2.28130084     -0.80252662
H      -2.36280398      0.45673063      0.89675093
H      -2.78724499     -1.00575117      0.01279896
H      -2.19213357     -1.12373182      1.65464493
H      -0.34770589     -1.74066863      0.00283517
H       0.07405644      2.26499277     -0.79932089
H      -1.02247434      1.93149445      0.53689549
H       0.69700298      2.14426720      0.84604475
H       2.07857165      0.82665004     -0.68868581
H       3.14917513     -0.98427120     -1.24306435
