12
b3lypvtz=-254523.44029545
O      -2.45238153     -0.57999774      0.30866193
C      -1.43593562     -0.27908392     -0.26367602
C      -0.59598912      0.87777474      0.18384512
O       0.38038264      1.36971360     -0.74912090
C       0.85529243      0.79058859      0.45228359
C       1.70155701     -0.44830445      0.38123061
F       1.10134014     -1.46789661     -0.34296812
H      -1.07651411     -0.80799898     -1.16115662
H      -1.15637405      1.63870311      0.71991370
H       1.24976954      1.50878187      1.17155019
H       2.65401702     -0.21390953     -0.10085160
H       1.89321564     -0.81493567      1.39269513
