16
b3lypvtz=-181121.32866652
C      -0.16921869     -1.30862660     -0.10060759
C       0.75127031     -0.48807715      0.79510600
C       1.83772116      0.29645722      0.09007432
C       0.55033274      0.96856537      0.44083353
N      -0.41293831      1.10690928     -0.64022573
C      -0.90320251     -0.25815557     -0.93523319
C      -1.76625129      0.71060753     -0.21890239
H       0.38713500     -1.99294053     -0.74558778
H      -0.86174836     -1.91288198      0.48934979
H       0.92018948     -0.80979966      1.81314350
H       2.02635492      0.08293177     -0.95474515
H       2.71516462      0.56549836      0.66198379
H       0.53131479      1.75622765      1.18217145
H      -1.09854673     -0.47189192     -1.97788077
H      -2.57066520      1.21474624     -0.73878413
H      -1.93691193      0.54042998      0.83930436
