14
b3lypvtz=-203691.12839845
C      -2.65266509     -0.44010006     -0.51304332
C      -1.60313339     -0.42896982      0.29833063
C      -0.74232584      0.77631615      0.54966031
C       0.70231108      0.62568728      0.09478237
O       1.29972122      1.48542843     -0.50682624
N       1.32894691     -0.55924939      0.53851731
C       1.87905765     -1.33124220     -0.29472387
H      -3.24574184     -1.33364166     -0.65597343
H      -2.96077554      0.44404755     -1.05862325
H      -1.32558575     -1.33438125      0.82721425
H      -0.70066769      0.97739310      1.62664066
H      -1.14185091      1.66122630      0.05775990
H       1.85378376     -1.15890319     -1.37353618
H       2.40817642     -2.21144826      0.06331684
