12
b3lypvtz=-200483.86991596
C      -2.95175769     -1.02736919      0.53554720
C      -2.05056215     -0.30507496      0.20727906
C      -0.92671650      0.51273796     -0.17334110
N      -1.12631669      1.70397909     -0.58929907
C       0.39402289     -0.14977631     -0.02937626
N       1.45920431      0.50429946     -0.28660328
N       2.65268403     -0.11364292     -0.21987637
H      -3.76541764     -1.64746446      0.81954517
H      -0.22455611      2.13039252     -0.81418024
H       0.41069784     -1.19171872      0.29720323
H       3.41465553      0.53308036     -0.10037175
H       2.71406219     -0.94944283      0.35347343
