11
b3lypvtz=-189658.39841615
C       3.77620233      0.63868575      0.07465771
C       2.60353930      0.36616768      0.01886441
C       1.27856827      0.06038588     -0.04372835
C       0.10477912     -0.21891094     -0.10231358
C      -1.30060730     -0.53073840     -0.17379422
N      -2.11650007      0.44247835      0.37909398
N      -1.65476735     -1.64973649     -0.67867984
H       4.81009976      0.87417551      0.12262218
H      -1.73637841      1.36861791      0.48054215
H      -3.09540319      0.40454189      0.14607507
H      -2.66953247     -1.75556714     -0.67363950
