12
b3lypvtz=-249512.09039379
O      -0.36919076      1.63919650      2.10998759
C      -0.16183888      1.67868561      0.92171206
C       0.05805580      0.46637031      0.09011981
C       0.00764608     -0.91413595      0.69848995
O      -0.95196042     -1.75602769      0.08154838
N       0.28776280      0.74125205     -1.13914281
O       0.51982893     -0.39747958     -1.90328017
H      -0.11148397      2.62836802      0.36068092
H      -0.27803823     -0.81521936      1.74304074
H       1.01349089     -1.35029958      0.66073038
H      -0.68835062     -1.87552240     -0.83709059
H       0.67387839     -0.04518793     -2.78699626
