18
b3lypvtz=-181909.65191974
C      -2.98823678     -0.62526747      0.03907310
C      -1.87183855      0.04903559     -0.24507431
N      -0.60518747     -0.26510112      0.20773815
C       0.51351244      0.56614531      0.18321521
C       0.48832551      1.86328701     -0.14798211
C       1.79508693     -0.14871579      0.53750536
C       2.25798948     -1.15508723     -0.52465012
H      -3.92530012     -0.33735051     -0.41065914
H      -2.99482391     -1.47671691      0.70800687
H      -1.89937084      0.90248313     -0.90918904
H      -0.51344119     -1.12261949      0.72724574
H       1.41073861      2.42102063     -0.19521003
H      -0.42223755      2.39645476     -0.37603247
H       2.57097055      0.59788168      0.70231943
H       1.66073442     -0.66755416      1.49420393
H       1.51081020     -1.93028059     -0.69946144
H       2.44254904     -0.65316159     -1.47518618
H       3.18172322     -1.64547527     -0.21372198
