13
b3lypvtz=-216132.9714065
C       3.02357210     -0.08900534      1.09066333
C       1.91599856      0.08721583      0.65692445
C       0.61637977      0.37012063      0.14408188
C      -0.30831748     -0.57473665     -0.07220242
C      -1.69229121     -0.32193562     -0.57895651
O      -2.68539346     -0.92662818      0.25514738
O       0.35382065      1.69311160     -0.13321764
H       3.99834245     -0.26498899      1.47292867
H      -0.04257859     -1.59868661      0.15093821
H      -1.87027702      0.74953634     -0.69653040
H      -1.82750420     -0.78884799     -1.55741175
H      -2.59011416     -0.55887307      1.13960674
H       1.10836261      2.22371806      0.14086728
