16
b3lypvtz=-204454.80160489
C      -0.84264654     -0.65985281      0.72195052
C      -1.08707848      0.79772164      0.29436239
C       0.05393035      1.37930644     -0.52429673
O       1.35100566      1.18590655      0.07143022
C       1.92786101     -0.04348584     -0.05880219
N       1.43358500     -1.18383360     -0.25140641
C       0.00044133     -1.47590049     -0.26328182
H      -0.33332291     -0.67915244      1.68795163
H      -1.80148029     -1.16135846      0.87338268
H      -1.26306758      1.41742286      1.17592660
H      -1.98988613      0.86665941     -0.32008866
H      -0.04870502      2.45895026     -0.62418394
H       0.07349304      0.95173536     -1.52918901
H       3.00541512      0.06229472      0.04152266
H      -0.09279144     -2.53380396     -0.01169621
H      -0.38675313     -1.38260963     -1.28358172
