14
b3lypvtz=-224542.03561777985
C       0.29154482     -1.07304004      0.51664086
N      -0.61239088     -0.13428299      0.08492856
C      -1.88721202      0.03121369      0.32698349
N      -2.69736005      0.84580837     -0.45323899
C       1.64685613     -0.79416587      0.26559304
N       2.02345333      0.35527656     -0.20871025
O       3.40214200      0.30034225     -0.58905210
H      -0.06904669     -1.95448385      1.01559125
H      -0.14611197      0.55106933     -0.51948171
H      -2.36368450     -0.58545837      1.07415445
H      -2.21292807      1.41708872     -1.13122898
H      -3.37351282      1.38711594      0.06749408
H       2.38199970     -1.57605400      0.44430461
H       3.61625101      1.22957025     -0.70871602
