12
b3lypvtz=-308776.79800711
C      -1.67931848      1.04956356      0.03641765
C      -0.81494777     -0.09876571     -0.46830924
O      -1.30204858     -1.36746303     -0.07739005
C       0.64323760      0.04792696     -0.02763669
F       1.15541415      1.23841834     -0.40211904
F       0.75584122     -0.03395863      1.31979778
F       1.42379823     -0.90865847     -0.55038426
H      -1.32593878      2.00908961     -0.33880489
H      -1.67562032      1.08717584      1.12729536
H      -2.70249264      0.89572442     -0.30190412
H      -0.80031526     -0.11089219     -1.55899569
H      -1.36940438     -1.38952269      0.88404719
