12
b3lypvtz=-226251.81132135
C       0.21946155      0.88706071      0.66193527
C      -1.17386906      0.56353855      0.16382235
O      -2.19381172      1.15875955      0.37983969
C      -1.05221037     -0.69383296     -0.68998134
O       0.32934752     -1.06045025     -0.67555052
C       1.09182877     -0.19343115      0.07858536
N       2.33128903     -0.30712375      0.24166728
H       0.53193970      1.87857013      0.33187366
H       0.25454166      0.88774493      1.75205141
H      -1.37721981     -0.49914946     -1.71408776
H      -1.65862759     -1.50234727     -0.27654555
H       2.69733033     -1.11933902     -0.25360987
