17
b3lypvtz=-194374.7000838
C      -2.74333436     -0.78332674     -0.31906290
C      -1.57344013     -0.82499730      0.30246779
C      -0.60449946      0.32052930      0.41490490
O      -1.19820668      1.48612013     -0.16093570
C       0.70487367     -0.00256180     -0.25705631
C       1.87993590     -0.03263417      0.36407658
C       3.19449475     -0.34751387     -0.27879642
H      -3.09226570      0.12128611     -0.79662250
H      -3.38418575     -1.65411669     -0.35988728
H      -1.23778532     -1.73934039      0.78058079
H      -0.40864319      0.49226530      1.48365100
H      -0.52108691      2.16812202     -0.20016020
H       0.63845007     -0.21177605     -1.32135267
H       1.90726842      0.18018553      1.43068808
H       3.65435429     -1.22733843      0.17987934
H       3.08412583     -0.53979972     -1.34607481
H       3.90256556      0.47579578     -0.15021868
