15
b3lypvtz=-193604.57296125
C      -2.35014961     -1.57326613      0.07925789
C      -1.68214654     -0.57497043      0.05421186
C      -0.86445952      0.63278764      0.03949680
O      -1.31590540      1.68053742     -0.36936684
C       0.55612665      0.48016874      0.53631926
C       1.44590346     -0.27414744     -0.46763926
C       2.88237157     -0.42173978      0.03067031
H      -2.95725312     -2.44494545      0.09337672
H       0.94680232      1.48309499      0.71107379
H       0.54449348     -0.06147331      1.48649809
H       1.01889466     -1.26070926     -0.66125823
H       1.43748768      0.26302885     -1.41907695
H       3.34162791      0.55272924      0.20729606
H       3.49646619     -0.95158287     -0.69867470
H       2.92009025     -0.98150821      0.96744621
