16
b3lypvtz=-204455.4715591
N       3.47854825     -0.19838525     -0.26742689
C       2.16491999      0.44390488     -0.31115923
C       1.13942299     -0.40085641      0.45837113
C      -0.22539129      0.20276949      0.45890499
C      -1.33693678     -0.37196828     -0.00895322
C      -2.62861914      0.31854925      0.03900111
O      -3.67156941     -0.14360977     -0.36503327
H       4.13089666      0.28124379     -0.87544247
H       3.86646715     -0.15649885      0.66820050
H       2.15569760      1.46961245      0.08557006
H       1.85676007      0.50819797     -1.35664909
H       1.48366684     -0.49108929      1.49643753
H       1.12015731     -1.40759539      0.04017401
H      -0.30894433      1.20602192      0.87385609
H      -1.33164064     -1.36770428     -0.43869504
H      -2.59362428      1.33494578      0.48639479
