11
b3lypvtz=-236333.88061174
N       0.94236088      0.12010388     -0.28300556
C       0.35582905     -1.14126287     -0.21817881
C       0.84695230     -2.38097084     -0.09196820
O      -0.19060988     -3.30513901     -0.21606592
C      -1.36475461     -2.61992155     -0.41244568
O      -2.44112785     -3.12653849     -0.57137272
N      -1.02251766     -1.28167149     -0.38221163
H      -1.65381603     -0.56111505     -0.68510839
H       0.61448414      0.75222192      0.43758607
H       1.95088331      0.07652918     -0.26341046
H       1.83441634     -2.76653568      0.07158130
