11
b3lypvtz=-257182.35674642
C      -1.12725923      0.71116840      0.14091439
O      -0.99196156      1.77969779      0.68107296
N      -2.33316592      0.22392512     -0.32959277
N      -0.07764722     -0.17670595     -0.12444338
N       1.18423899      0.15239018      0.24379884
N       2.01100743     -0.62169512     -0.23724509
O       3.27994578     -0.24493841      0.20145791
H      -3.12509550      0.76361427     -0.02104070
H      -2.48223291     -0.77192626     -0.35184533
H      -0.18208676     -0.91797241     -0.80715261
H       3.84425692     -0.89755764     -0.22872734
