20
b3lypvtz=-182666.68377298
C       2.43877040     -0.02763707     -0.13852580
C       0.94745947     -0.17990747     -0.37628969
C       0.22611075     -1.45208873      0.13958020
C      -0.98759553     -0.57763930      0.53956310
N      -1.98978753     -0.56932462     -0.52546076
C      -0.04345418      0.66358908      0.47312991
C      -0.55481322      1.98884856     -0.06273473
H       2.78965609      0.96636533     -0.42696568
H       2.68620730     -0.17473944      0.91610678
H       3.01033898     -0.75697893     -0.71793476
H       0.72009997     -0.04022538     -1.43461197
H       0.72507572     -1.87354097      1.01415777
H       0.03323809     -2.25065280     -0.57765694
H      -1.40953080     -0.78150486      1.53118735
H      -2.41425284     -1.48608607     -0.60975295
H      -2.73893676      0.07867203     -0.30935981
H       0.38784259      0.80960206      1.46826422
H      -1.27684698      2.44788007      0.61834861
H      -1.03630162      1.85859086     -1.03232473
H       0.26656711      2.69835765     -0.18816013
