13
b3lypvtz=-267987.66433998
C       2.63453384     -0.25316737     -0.08718633
N       1.28066068     -0.71290850     -0.33570018
C       0.32264173      0.06633548     -0.03102162
N       0.38041694      1.31050268      0.54299074
C      -1.07556006     -0.45873137     -0.26848971
F      -1.70533847     -0.70484458      0.91956301
F      -1.83314719      0.48699926     -0.91723589
H       2.86370976      0.67681017     -0.62608532
H       2.81611899     -0.07164238      0.97940231
H       3.34032230     -1.00997482     -0.42329660
H       1.26014730      1.79613920      0.55184545
H      -0.43732135      1.89345881      0.48014094
H      -1.05398748     -1.37044560     -0.86002279
