13
b3lypvtz=-234665.49861455
N       0.22621364      0.47942218      1.51405624
C      -0.14372270      0.72139958      0.30559485
N      -0.55724007      1.92859770     -0.19479512
C      -0.07913532     -0.37221901     -0.69245067
O      -0.48564416      0.01868714     -1.95234467
N       0.30959438     -1.57480384     -0.54154541
N       0.63796599     -2.08611637      0.67202779
H       0.16763218      1.30701427      2.10350298
H      -0.81820165      2.65293380      0.45089524
H      -0.97853757      1.94468125     -1.10738380
H      -0.40745421     -0.76302879     -2.51382580
H       0.85872882     -1.39350842      1.38476009
H       1.26970067     -2.86305948      0.57140830
