17
b3lypvtz=-191958.46604436
C      -0.77453679     -1.44895402      0.02948683
C      -0.55031891      0.04754801     -0.04547529
C       0.10537813      0.64021271     -1.25851421
N       0.78238538      0.64218860      0.02649067
C       1.96214024     -0.19238938      0.19845927
C      -1.60515957      0.86415091      0.65357760
N      -1.42924071      1.94537243      1.28278048
H      -0.07494201     -2.00728740     -0.58896204
H      -1.78150746     -1.68917780     -0.31667025
H      -0.68646332     -1.80758672      1.05754943
H      -0.21181955      1.60642341     -1.63340879
H       0.45362743     -0.05715610     -2.01652680
H       2.05712045     -0.47364490      1.24768180
H       1.96309817     -1.10490170     -0.40919430
H       2.84034972      0.39417323     -0.07329423
H      -2.61997359      0.46275395      0.58677868
H      -0.43013765      2.17827476      1.25924118
