19
b3lypvtz=-171845.0829775
C       1.20679111      1.11066314     -0.27463850
C      -0.01259250      1.62303914     -0.12000698
C      -1.21023089      0.93791914      0.49586482
C      -1.66221735     -0.36122785     -0.19641613
C      -0.53909536     -1.38106557     -0.48682979
C       0.65334273     -1.31735925      0.47752263
C       1.70072806     -0.27007568      0.06666849
H       1.96241549      1.75408550     -0.71722229
H      -0.16338842      2.64708722     -0.44615633
H      -2.05254276      1.63209659      0.50534485
H      -0.99933517      0.72607265      1.54762938
H      -2.42010868     -0.82596699      0.44049091
H      -2.16556464     -0.11405386     -1.13425350
H      -0.16445579     -1.23251679     -1.50292893
H      -0.97186922     -2.38395688     -0.47304004
H       0.30722277     -1.13318633      1.49721185
H       1.15101097     -2.28966028      0.50518483
H       2.23383393     -0.64985351     -0.81354662
H       2.46981871     -0.18920238      0.84449034
