14
b3lypvtz=-226997.44532468
C      -1.36436104      0.70529782      0.94803560
C      -1.20350989     -0.25381710      0.02123478
O      -2.09665605     -1.26522283     -0.19439215
N      -0.16168860     -0.37393920     -0.86119895
C       1.03056635      0.40210100     -0.73341533
C       2.14116018     -0.15393001     -1.58276358
O       2.06075251     -1.17543161     -2.21479807
H      -2.24984092      0.72612946      1.56528127
H      -0.63950108      1.49003174      1.08434278
H      -2.82308283     -1.16983415      0.42887604
H      -0.05093410     -1.27029833     -1.31107243
H       0.87750325      1.45105069     -1.02425823
H       1.40952481      0.43933475      0.30253385
H       3.06986740      0.44862776     -1.57840558
