19
b3lypvtz=-192732.18234539
C       2.81480593     -0.53142404     -0.05785686
C       1.45313544      0.03946535      0.34680118
C       1.32584462      1.50657791     -0.07158578
C       0.31123221     -0.82097324     -0.23412920
C      -1.04468930     -0.47730190      0.29705081
N      -1.98798299     -0.09982230     -0.46559972
N      -3.23158822      0.11590037      0.08641836
H       3.63092382      0.05498963      0.36835941
H       2.93158510     -1.56311020      0.27980632
H       2.93289352     -0.52156638     -1.14455339
H       1.38189588     -0.00925837      1.43992093
H       2.11034713      2.11323296      0.38476259
H       1.41463188      1.60714085     -1.15648257
H       0.36242092      1.92733567      0.21837851
H       0.28950616     -0.72988686     -1.32240698
H       0.52143332     -1.87189415     -0.00289188
H      -1.20118862     -0.57310108      1.38032818
H      -3.73881853      0.78763755     -0.46907350
H      -3.21729926      0.38322421      1.06832159
