12
b3lypvtz=-226230.70311374
C       2.10793425     -0.56256401      0.00002815
C       0.61921240     -0.46197042     -0.00000537
C      -0.32988670     -1.42766698      0.00000571
O      -1.56925668     -0.90544554     -0.00010080
N      -1.45959758      0.49127280     -0.00008108
C      -0.17514496      0.72390179      0.00002944
O       0.32942130      1.97116020      0.00005142
H       2.53688255     -0.07636117      0.87823206
H       2.53692643     -0.07632758     -0.87813591
H       2.42856210     -1.60368793      0.00001683
H      -0.27260596     -2.50376611     -0.00015145
H      -0.40791315      2.59580696      0.00002700
