16
b3lypvtz=-181169.12231064
C      -2.57107194     -0.53489483      0.01142393
C      -1.14334054     -0.08236084      0.00566089
C      -0.02668040     -0.88691831     -0.02003790
N       1.09522869     -0.09329643     -0.03880987
C       2.46074155     -0.56818461      0.03037069
C       0.70377644      1.21893087     -0.01313677
C      -0.66967243      1.26029214      0.01066359
H      -3.10570289     -0.16900059      0.89157633
H      -3.11301771     -0.17301532     -0.86603031
H      -2.63993584     -1.62334517      0.01402193
H       0.05751840     -1.96101051     -0.03081511
H       2.56573897     -1.48201266     -0.55355043
H       2.76661104     -0.77363908      1.05931520
H       3.12859053      0.18303832     -0.38793026
H       1.43218419      2.01205299     -0.01702476
H      -1.27230306      2.15399504      0.01639586
