17
b3lypvtz=-194380.70656056
C       1.49962977     -1.47421155      0.50545606
C       1.13154402     -0.27839627      0.03487431
C       2.14726241      0.66419467     -0.56426562
C      -0.27262708      0.19004042      0.07960364
C      -0.56095632      1.60858477      0.49982629
C      -1.25244981     -0.64732374     -0.27410058
O      -2.57811568     -0.29935791     -0.21352303
H       2.52152264     -1.82174888      0.41994717
H       0.79654541     -2.13161303      0.99863574
H       2.24122411      1.57606636      0.03033489
H       1.85461990      0.97278654     -1.57123079
H       3.13000366      0.19772190     -0.61708580
H      -1.63189820      1.79090522      0.54572766
H      -0.13457667      1.82052328      1.48393272
H      -0.12716433      2.32881763     -0.19845002
H      -1.03935415     -1.64869976     -0.62802115
H      -3.10560068     -0.98906365     -0.62303747
