15
b3lypvtz=-214467.95755386
C       0.90425139     -0.32266328     -0.40784015
C      -0.30776978      0.61129629     -0.67657985
C      -1.22525155     -0.63393953     -0.52716833
C      -0.19393029     -0.66967606      0.63464819
N      -0.51675696      0.80996969      0.82190573
O      -2.56979344     -0.44881683     -0.22991417
N       2.16877170      0.23892661      0.03183482
H       1.06820292     -1.08919754     -1.17089496
H      -0.38831126      1.43602564     -1.38432571
H      -1.13711267     -1.40526553     -1.28827289
H      -0.13936621     -1.35901563      1.47690793
H       0.28928273      1.29080918      1.22169261
H      -2.59102491      0.24341082      0.44781692
H       2.37009118      0.07489928      1.00704597
H       2.26871714      1.22323689     -0.16713277
