14
b3lypvtz=-224531.93348081
C      -2.94421504      0.08021143     -0.12729616
N      -1.75221356     -0.70841289      0.13815174
C      -0.54515307     -0.09005920      0.32369684
N       0.55187308     -0.66682064      0.01450686
O       1.63184899      0.13748587      0.46817784
N       2.80394754     -0.37968678     -0.05657810
C       3.80809818      0.30428343      0.30898662
H      -2.98073358      0.48937709     -1.14343282
H      -2.99058260      0.91208371      0.57585021
H      -3.82732462     -0.53713081      0.03033301
H      -1.68541887     -1.58678737     -0.35544052
H      -0.57676148      0.89384588      0.78847665
H       3.73529761      1.18045851      0.94889666
H       4.77133741     -0.02884824     -0.05103074
