11
b3lypvtz=-192083.66488971
C       2.95789697      0.02142949     -0.00009399
C       1.75617374      0.00270061     -0.00010795
C       0.34122048      0.00076665     -0.00012240
C      -0.48070698     -1.08915220      0.00004963
O      -1.77916100     -0.70634756      0.00001302
C      -1.79486851      0.65784301     -0.00005018
C      -0.53499584      1.14572495      0.00005397
H       4.01901005      0.03390416     -0.00007174
H      -0.28719977     -2.14629347      0.00015623
H      -2.76655088      1.11717507     -0.00012141
H      -0.23705427      2.17940629      0.00019182
