15
b3lypvtz=-191191.59912845
C       2.28650365      1.55700691     -0.02846115
C       1.61551899      0.56239282     -0.10209045
C       0.87403995     -0.66135867     -0.15163524
C      -0.46057094     -0.69472303     -0.31784538
C      -1.35277061      0.48712955     -0.51387653
N      -2.44539489      0.46778606      0.47400959
N       1.67437352     -1.81546702     -0.08148053
H       2.86403439      2.44595915      0.02353951
H      -0.95430306     -1.66136572     -0.31409683
H      -0.75688484      1.40663943     -0.50236480
H      -1.82175546      0.42738886     -1.50232366
H      -2.07063792      0.63033838      1.40197375
H      -3.10059594      1.21802064      0.28580368
H       1.15895210     -2.65489129      0.13817274
H       2.48949106     -1.71485607      0.50393855
