10
b3lypvtz=-284680.57043577
C       2.19169982      0.69368846     -0.00000470
C       1.15636230     -0.13281650     -0.00000599
F       1.34105851     -1.47303054      0.00000351
C      -0.25036991      0.23310860     -0.00000136
F      -0.48863750      1.55480337     -0.00000226
C      -1.26019447     -0.63470691      0.00000405
F      -2.53079593     -0.22389673      0.00000501
H       3.19996832      0.30959704      0.00000261
H       2.02821840      1.75891239     -0.00000480
H      -1.12481352     -1.70373516     -0.00000208
