17
b3lypvtz=-215279.30092937
N      -2.15780209      0.32990276      1.19082069
C      -1.94929071     -0.44766796     -0.04051791
C      -0.50053160     -0.91100999     -0.15126159
N       0.40733759      0.23075240     -0.08389292
C       1.80894664     -0.10214094     -0.27031595
C       2.64627673      1.14500340     -0.46108297
O       3.79548992      1.25189688     -0.12103638
H      -2.05477603      1.31994496      1.00779815
H      -3.09389355      0.19976587      1.54944133
H      -2.21163634      0.11763337     -0.94173115
H      -2.59095984     -1.33000188     -0.01127080
H      -0.29892680     -1.65118230      0.63831866
H      -0.35567539     -1.41055079     -1.11331011
H       0.28045365      0.66999111      0.82155179
H       2.26028200     -0.71256127      0.52426327
H       1.90658121     -0.67449237     -1.20170017
H       2.10802460      1.97461675     -0.96497394
