16
b3lypvtz=-204424.16723243
C      -1.56302376      1.00365383      0.48903756
C      -0.80440576     -0.27058202      0.19842280
C       0.43963379     -0.59507602     -0.10435891
C       1.56387547      0.38370638     -0.27695325
N       2.62228610      0.15255169      0.72071240
C      -2.09939527     -1.01224764      0.42687679
O      -2.77837644      0.24021315      0.70695896
H      -1.66921106      1.70678845     -0.34293465
H      -1.25572305      1.55018767      1.38572077
H       0.68651718     -1.64470858     -0.24664070
H       1.92864552      0.31923237     -1.31378208
H       1.18965370      1.40002227     -0.13886010
H       3.40659119      0.76950260      0.54069911
H       2.97881262     -0.79315113      0.63501577
H      -2.52493321     -1.51995062     -0.44429300
H      -2.12094703     -1.69014238      1.28553097
