15
b3lypvtz=-214523.41908137
C      -1.77922763     -0.49610468     -1.66541687
C      -1.55004313      0.36656379     -0.67281589
N      -0.46790943      0.45910706      0.19342602
C       0.54361133     -0.44082302      0.46269059
N       0.70880171     -1.63317809      0.04878248
C       1.55733068      0.10011064      1.46701934
O       1.59584728      1.52314515      1.55090519
H      -2.69492193     -0.40037869     -2.22920274
H      -1.09493900     -1.26829309     -1.97627773
H      -2.28323113      1.14026861     -0.47719035
H      -0.38090973      1.32142047      0.70979956
H      -0.05666858     -1.95471871     -0.53318727
H       2.52978684     -0.32903704      1.22591076
H       1.27565857     -0.25071550      2.46095500
H       2.09671414      1.86243310      0.80250192
