17
b3lypvtz=-191982.49180706
C      -1.05656893      1.64682740     -0.01163171
N      -0.25075118      0.51561718      0.41514063
C       1.20315424      0.70967772      0.25791214
C       1.78726250     -0.71209726      0.15070198
C       0.58202122     -1.50284321     -0.29375388
C      -0.52267407     -0.76374119     -0.10352259
N      -1.85519479     -1.08987445     -0.35466225
H      -0.80748053      2.51269266      0.60270693
H      -0.88506524      1.91179986     -1.06636788
H      -2.11706848      1.44145498      0.11663896
H       1.60844871      1.29123495      1.08632766
H       1.39287120      1.26376862     -0.67281676
H       2.63231696     -0.74441525     -0.54001312
H       2.15891897     -1.05771064      1.12329892
H       0.59108630     -2.55150489     -0.54540556
H      -1.97911835     -2.07237739     -0.54817722
H      -2.48215853     -0.79850912      0.38362375
