14
b3lypvtz=-227023.09665068
C      -2.69418697      0.81592379     -0.00002331
C      -2.14035963     -0.60314438      0.00007770
C      -0.65428216     -0.72140953      0.00012154
N       0.11404186      0.29375847      0.00002432
C       1.50197100      0.00045167      0.00000201
O       2.03063239     -1.08486093     -0.00009519
O       2.19346778      1.15400433      0.00000900
H      -3.78422984      0.79775445     -0.00006947
H      -2.35737183      1.36729754      0.87690776
H      -2.35729438      1.36720282     -0.87698394
H      -2.50560257     -1.17058589      0.86537420
H      -2.50553451     -1.17067916     -0.86518780
H      -0.23761852     -1.73380152      0.00017627
H       3.13031141      0.91186934     -0.00004309
