13
b3lypvtz=-242061.79354021
C       0.10915570      1.69334047      0.26424782
C      -0.00670553      0.24296720     -0.10387282
C       0.95952127     -0.63240828      0.18973851
O       2.08076014     -0.35644245      0.88635353
F       0.93560647     -1.91590485     -0.23564491
N      -1.13768588     -0.08859292     -0.87069273
C      -1.82746726     -1.12215367     -0.62923590
H       1.08107720      1.92116831      0.69478261
H      -0.04484876      2.30594393     -0.62586386
H      -0.66167766      1.97313330      0.98703264
H       2.81463691     -0.86643372      0.51915973
H      -2.67362510     -1.34638445     -1.27392061
H      -1.62874749     -1.80823286      0.19791601
