12
b3lypvtz=-202880.75710414
C       2.45198811     -1.15166099      0.17671347
C       1.49624680     -0.58898607     -0.28052426
C       0.32069238      0.05625843     -0.83111844
O       0.24447819      1.49097199     -0.60332354
C      -1.03301071      1.39671930      0.08297368
C      -1.00809302     -0.10536580     -0.06286233
N      -1.76775720     -1.02001598      0.32189390
H       3.30338321     -1.63754596      0.58456196
H       0.22561632     -0.17316107     -1.89833719
H      -1.83457504      1.90775296     -0.45617451
H      -0.98084552      1.76845236      1.10874591
H      -1.41782353     -1.94351916      0.06335135
