10
b3lypvtz=-248747.04240823
C      -0.76608052     -1.16015865      0.04069468
O      -1.91518261     -1.30065263     -0.28229725
C      -0.07491860      0.17321944      0.02753337
N       1.16499843      0.34645132     -0.25634999
O       1.82554033     -0.81468080     -0.58212211
C      -0.77790211      1.44289746      0.38394977
O      -1.90497584      1.50594989      0.79587795
H      -0.14166098     -2.00810099      0.36941619
H       2.72882996     -0.52043673     -0.74830626
H      -0.13864809      2.33551170      0.25160364
