14
b3lypvtz=-201301.95756877
C      -2.54566782      0.25016616     -0.00001528
N      -1.47070088     -0.72869676     -0.00000156
C      -0.28449818     -0.29173681      0.00000311
C       0.31999191      1.11097160     -0.00000378
N       1.77872056      0.93398758     -0.00002845
C       1.97298234     -0.32689030     -0.00001195
N       0.83922592     -1.11484605      0.00001641
H      -3.50279118     -0.26845886     -0.00008018
H      -2.51734488      0.89861599     -0.88415317
H      -2.51742613      0.89853886      0.88418139
H       0.00327875      1.68236193      0.87711030
H       0.00325061      1.68236910     -0.87710249
H       2.95181715     -0.78977083     -0.00004236
H       0.79630383     -2.11895661     -0.00001598
