12
b3lypvtz=-226201.96988164
C       3.25170569     -0.09784475      0.00004101
N       2.08061731     -0.57559784     -0.00001568
O       1.12216710      0.46705511     -0.00008175
C      -0.13602095     -0.01443588     -0.00012107
C      -1.19538488      0.80428629     -0.00011009
C      -2.55302466      0.25794120     -0.00008800
O      -2.84044697     -0.92167084      0.00008747
H       4.05861454     -0.81807313      0.00011179
H       3.46028717      0.96794185      0.00006515
H      -0.22646417     -1.09254658     -0.00014856
H      -1.06702506      1.87863619     -0.00009757
H      -3.35325212      1.02447239      0.00032531
