12
b3lypvtz=-202934.89392777
C       1.42556767      1.56174162     -0.33976768
C       0.85458514      0.36319038     -0.45567754
C      -0.36265452     -0.05800257      0.23626024
C      -0.91406336     -1.28170082      0.09411537
O      -0.36730332     -2.21590107     -0.71241735
C      -1.02412334      0.85211729      1.11454185
N      -1.53981042      1.60621261      1.81883978
H       2.32763374      1.79909631     -0.88563079
H       1.01410026      2.33453008      0.29687215
H       1.29477616     -0.38493406     -1.10223818
H      -1.81728906     -1.55480867      0.62517068
H      -0.89141895     -3.02154110     -0.69006854
