15
b3lypvtz=-191220.44376231
C      -2.44231592      0.78167188     -0.27600539
C      -1.41785107     -0.04861151     -0.00348380
C      -0.04949023      0.45697665     -0.03903225
C       1.07218877     -0.27185025      0.07232181
C       2.39715181      0.32469168      0.03947826
N       3.44887303     -0.38709327      0.15396919
N      -1.58375957     -1.41059003      0.24844231
H      -2.25746229      1.80813085     -0.55193765
H      -3.47058794      0.44621901     -0.25883204
H       0.03596702      1.53023480     -0.16824906
H       1.04785196     -1.35028781      0.17332868
H       2.42165488      1.41384378     -0.08879804
H       4.28642562      0.19155326      0.10860553
H      -2.53636337     -1.68847956      0.42638753
H      -0.95228274     -1.79640948      0.93374288
