18
b3lypvtz=-181893.20814065
C       0.78269764      2.26692783      0.24185965
C       0.43924376      1.20456139     -0.47326444
C      -0.13251237     -0.07283071      0.09386071
C      -1.54324013     -0.26781442     -0.40094441
C      -2.61467596     -0.33370347      0.37787603
N       0.67700134     -1.21809098     -0.34452220
C       1.99789427     -1.29438566      0.26913107
H       1.17074766      3.16312017     -0.22421344
H       0.68330966      2.28172467      1.32104338
H       0.55703080      1.21043738     -1.55291892
H      -0.15695604      0.01900068      1.19195518
H      -1.64459681     -0.36648954     -1.47762794
H      -3.60591396     -0.47452205     -0.03275427
H      -2.54096154     -0.24129424      1.45519636
H       0.16143769     -2.06849092     -0.15432266
H       2.49394870     -2.20711641     -0.06121242
H       2.60704519     -0.44927722     -0.05169247
H       1.97849310     -1.29035550      1.37022280
