16
b3lypvtz=-204439.96947721
C      -1.85788018     -0.13404144     -0.57725578
C      -0.88915156      0.27824493      0.24897621
C       0.52285569     -0.22030654      0.17911560
C       1.55211201      0.52472098     -0.61343317
C       1.10153707     -0.85271929     -1.05030839
O       1.00916517     -0.68001174      1.43085059
N      -1.05823489      1.24753152      1.23540890
H      -1.66095335     -0.86126477     -1.34779785
H      -2.86328714      0.26123071     -0.51082673
H       1.22203194      1.37667022     -1.18977456
H       2.53059649      0.61489608     -0.16287862
H       0.49334846     -0.93298571     -1.93895843
H       1.78712236     -1.67188846     -0.88470434
H       0.54921677     -1.50161646      1.63907024
H      -2.01000008      1.40684766      1.52575183
H      -0.42847879      1.14469232      2.01676450
