20
b3lypvtz=-182670.67528544
C      -2.34320011     -0.69511596      0.04004798
C      -1.27235078      0.08635885      0.17031798
C      -1.22521925      1.45319370     -0.45606004
C      -0.08418142     -0.37362867      0.98627737
C       1.28595360     -0.47371174      0.26746842
C       2.07467857      0.83559389      0.23561366
N       1.09949878     -0.95798901     -1.10572836
H      -3.21604116     -0.37279366     -0.51383748
H      -2.38646268     -1.68160381      0.48511062
H      -0.48816525      1.47693264     -1.26055094
H      -0.93758904      2.21547883      0.27325300
H      -2.19349682      1.72776749     -0.87380884
H       0.04191835      0.29264113      1.84673485
H      -0.32397438     -1.35728053      1.39622336
H       1.87756210     -1.17685065      0.87311660
H       1.55567225      1.60748279     -0.33009824
H       3.04898719      0.67940849     -0.23394449
H       2.25287013      1.20347157      1.24781772
H       1.99063111     -1.20770163     -1.51846187
H       0.51832880     -1.78808073     -1.12220631
