12
b3lypvtz=-247124.69833384
C       1.23109901     -0.24175645      0.07668967
N       0.35129901      0.64682702      0.35607227
C      -0.97305431      0.39803122      0.01709079
N      -1.45018108     -0.78484521     -0.06438718
O      -2.81926965     -0.76824332     -0.43370851
O      -1.70983824      1.51259072     -0.17503184
N       2.51615621     -0.12539532      0.46851827
H       0.99097047     -1.15184297     -0.47321589
H      -3.04783151     -1.69933705     -0.36334222
H      -1.11532437      2.25710642     -0.01975527
H       2.80919262      0.70582581      0.95393032
H       3.21678185     -0.74896086      0.11480710
