19
b3lypvtz=-218441.0903766
C       2.57231581      0.06524072     -0.05220659
C       1.29254533     -0.76889185     -0.08649120
C       0.08033190     -0.00541753      0.43368113
O      -0.20320098      1.02266689     -0.48643742
C      -1.11225215      2.00157690     -0.00476654
O      -1.05037518     -0.81720097      0.69188452
C      -1.55900002     -1.55774640     -0.41101955
H       2.47508100      0.95175104     -0.67794724
H       2.80303478      0.39378853      0.96378661
H       3.42384126     -0.51325480     -0.41245397
H       1.09339225     -1.09633227     -1.10868485
H       1.40616796     -1.66467591      0.52796534
H       0.30189853      0.43087876      1.41581006
H      -2.08542531      1.56585934      0.23276666
H      -1.22955879      2.74066691     -0.79473805
H      -0.71922615      2.49496806      0.89150641
H      -0.91199489     -2.40097155     -0.66962455
H      -2.52713560     -1.94538859     -0.09944805
H      -1.69296874     -0.92715130     -1.29283370
