14
b3lypvtz=-203650.75671676
C      -1.45207255     -0.05844635     -0.36629496
C      -0.32079939     -0.96690568      0.08953736
C       0.47168062     -0.07150560      1.07226863
C       1.41170603      0.18379541     -0.08917193
C       0.34562178      1.19592453      0.29968536
O      -0.83326311      1.23619832     -0.48324630
N       0.82816203     -0.90567148     -0.87473024
H      -1.85875884     -0.33164568     -1.34184947
H      -2.26939768     -0.02918671      0.36579524
H      -0.61078086     -1.97197191      0.38800262
H       0.63667997     -0.20485308      2.12964433
H       2.47399409      0.39076264     -0.09443950
H       0.63107623      2.15140797      0.71483126
H       0.54615168     -0.61790234     -1.81003240
