13
b3lypvtz=-213761.80426289
C       0.61495017     -1.69728258      0.24856584
C       0.85316842     -0.40190797      0.00823568
N       2.14280589      0.12620597     -0.18878745
C      -0.20768812      0.63539402      0.06303699
N       0.00686688      1.88507194      0.22324529
C      -1.67877891      0.31438118     -0.08471628
O      -2.17104944     -0.77282888     -0.23691384
H       1.42029967     -2.42088002      0.22615114
H      -0.37522512     -2.04841166      0.48018952
H       2.21358279      0.74442639     -0.98670968
H       2.85893342     -0.58406593     -0.23425874
H       1.00356107      2.06723625      0.35455126
H      -2.28501472      1.23740828     -0.03473073
