15
b3lypvtz=-191205.92853947
C       1.20820887     -0.78923432     -0.09018933
C       1.40709274      0.64361263      0.33677020
N       0.56691281      1.58926393      0.30326289
C      -0.78121827      1.35237423     -0.20294659
C      -1.24417617     -0.08316939     -0.32183726
C      -0.24041621     -1.16959765     -0.26936618
N      -1.18726285     -0.98145354      0.84159985
H       1.70158552     -1.44931870      0.63180370
H       1.74676497     -0.93960857     -1.03392507
H       2.40452544      0.89249988      0.70353720
H      -1.46858184      1.91757227      0.43398486
H      -0.83955769      1.82836209     -1.18786896
H      -2.13341586     -0.21790187     -0.92862093
H      -0.41369412     -2.07784672     -0.83521512
H      -0.72676738     -0.51555429      1.61901073
