21
b3lypvtz=-195909.77884412
C      -2.58074043     -0.59146849      0.27254428
C      -1.26462485     -0.79347000     -0.47954209
C       0.00000769     -0.36748341      0.28815142
C       1.26463239     -0.79345407     -0.47956385
C       2.58075538     -0.59146050      0.27251178
C       0.00000298      1.12329960      0.62388986
O      -0.00000193      1.87398210     -0.59282255
H      -2.79389890      0.46397991      0.44783107
H      -3.41780553     -0.99828345     -0.29742477
H      -2.56738743     -1.09496726      1.24263033
H      -1.16237245     -1.85219696     -0.73364736
H      -1.29968854     -0.25126152     -1.42688998
H       0.00001899     -0.88999678      1.25392119
H       1.16238091     -1.85217687     -0.73368668
H       1.29968325     -0.25122847     -1.42690231
H       3.41781641     -0.99826061     -0.29747384
H       2.56741517     -1.09497750      1.24258853
H       2.79391048      0.46398569      0.44781626
H      -0.88176065      1.36810743      1.22542920
H       0.88176718      1.36811295      1.22542635
H      -0.00000713      2.81025122     -0.37798483
