16
b3lypvtz=-232748.92779137
C      -1.33497828     -1.35776742     -0.10164704
C      -0.61491518     -0.31099792      0.71691183
C       0.78306600      0.21136821      0.39502831
C      -0.43495295      1.08585382      0.23380970
O      -0.67845482      2.11601097      1.15141698
C       1.56753336     -0.24145312     -0.79299691
F       2.40237818      0.79610322     -1.23829585
H      -0.99012993     -2.36416080      0.14485620
H      -2.40799730     -1.31776619      0.09626822
H      -1.19774864     -1.21319069     -1.17334565
H      -0.79961856     -0.37390137      1.78248338
H       1.38655457      0.43488437      1.26667552
H      -0.75009577      1.29800455     -0.78525484
H      -0.07466660      2.84142087      0.95971361
H       2.21570920     -1.08713129     -0.55279143
H       0.92831672     -0.51727722     -1.63237497
