18
b3lypvtz=-181909.43251732
C       3.63976800      0.27312608      0.21334257
C       2.42031996      0.26482613     -0.33840750
C       1.22428202     -0.27745709      0.25904564
C       0.02325637     -0.26069306     -0.35219725
N      -1.14170210     -0.82937196      0.10528196
C      -2.44019330     -0.33830665     -0.33287779
C      -2.89412827      0.95909732      0.33943162
H       3.82274124     -0.15398144      1.19211002
H       4.48761283      0.70569126     -0.29853795
H       2.29841001      0.70508068     -1.32546295
H       1.31391722     -0.72538319      1.24505909
H      -0.07149281      0.19840482     -1.33186314
H      -1.11217675     -1.16581725      1.05620457
H      -2.39009524     -0.19948800     -1.41514856
H      -3.17505661     -1.12645607     -0.15627100
H      -2.18001847      1.76353862      0.15772096
H      -3.86756475      1.27233351     -0.04377794
H      -2.98515932      0.82856728      1.41971865
