13
b3lypvtz=-192805.12259082
C       3.70375239      0.41362785     -0.06233073
C       2.54437073      0.08845271     -0.01253839
C       1.23285454     -0.27879127      0.04475084
C       0.07120867     -0.60520115      0.09670323
C      -1.33744728     -0.99814565      0.15388807
O      -2.21448286     -0.09700758     -0.49371062
C      -2.32839727      1.15828139      0.15614327
H       4.72465595      0.69991408     -0.10752364
H      -1.62905000     -1.13461058      1.20518052
H      -1.46602506     -1.95846718     -0.34923834
H      -1.37503864      1.69542180      0.17075401
H      -2.68466641      1.04013354      1.18683293
H      -3.05593577      1.73759705     -0.40817016
