11
b3lypvtz=-212982.18162305
C      -2.48374832     -0.23295081      0.23892613
N      -1.61250673      0.51944832     -0.29026571
C      -0.26297249      0.20829773     -0.11932736
N       0.18977350     -1.02397031     -0.18086220
O       1.57081113     -0.91880528     -0.02090542
C       1.89263730      0.37680218      0.13248067
C       0.78807155      1.15167580      0.06832907
H      -3.53375595     -0.01661017      0.06193231
H      -2.23380609     -1.09103470      0.86611093
H       2.93947907      0.58972588      0.26834779
H       0.70492604      2.22016538      0.14388679
