12
b3lypvtz=-249522.21067206
O       2.41945732      0.72183001      0.54225130
C       2.03407087     -0.27932602      1.07922109
O       1.02248183     -1.05807116      0.66999319
C       0.35468687     -0.66315586     -0.56029130
C      -0.67599156      0.38729909     -0.30992858
N      -1.89265846      0.09593620     -0.52035517
O      -2.73634694      1.17904546     -0.27045460
H       2.46316837     -0.70615893      1.99462352
H      -0.11622675     -1.56706463     -0.93416965
H       1.10806513     -0.30516635     -1.26169317
H      -0.37074322      1.37305822      0.03314940
H      -3.60976345      0.82177397     -0.46234603
