12
b3lypvtz=-226217.6670625
C       0.71760640      1.28324788     -0.18117558
C       0.39527100     -0.15015467     -0.12354212
O       0.27641911      0.57861839     -1.35097896
C      -0.92580547     -0.64665159      0.45772187
O      -1.94197517      0.32121684      0.34924835
C       1.47589572     -1.11628186     -0.07394491
N       2.30238029     -1.91318552      0.00214972
H       1.75586794      1.59235175     -0.19803990
H      -0.00133593      1.97827658      0.23416196
H      -0.79481512     -0.86382880      1.51810810
H      -1.19509491     -1.58159452     -0.04678115
H      -2.06441386      0.51798552     -0.58692739
