11
b3lypvtz=-212995.9503669
C       2.33615103      0.07854366      0.32601583
N       1.10153943      0.37544401      0.40042869
C       0.18506450     -0.40496223     -0.27487639
C      -1.12715408     -0.11428693     -0.21314647
O      -2.03596798     -0.88300013     -0.87846649
C      -1.64352145      0.98951017      0.53345053
N      -2.16755483      1.84686363      1.09931673
H       3.05813698      0.69076938      0.85599606
H       2.71574350     -0.77139672     -0.25083732
H       0.50285094     -1.26366750     -0.86561398
H      -2.92538806     -0.54381734     -0.73236719
