14
b3lypvtz=-203678.65814113
N       2.23527949      0.33167485      0.11654035
C       0.85497402      0.20523059      0.01509713
C      -0.06294520      1.08588488     -0.41098144
C      -1.47189257      0.57148155     -0.21463007
C      -1.25793650     -0.83304351      0.32800890
O      -0.55453382     -1.72095124     -0.54902947
C       0.18490627     -1.04321639      0.49277980
H       2.75282906     -0.50421879     -0.11248713
H       2.62028783      1.13972220     -0.34924393
H       0.15636075      2.03387790     -0.88298565
H      -2.04178616      1.16855863      0.50559538
H      -2.05095442      0.55419774     -1.14283125
H      -1.99881413     -1.30619972      0.96103972
H       0.63422537     -1.68299870      1.24302765
