14
b3lypvtz=-180352.03180803
C      -3.37171751     -0.80877839      0.22027910
C      -2.45775883     -0.04059243      0.10769805
C      -1.33571988      0.88561157     -0.04169446
C      -0.07769155      0.20850362     -0.51335261
C       1.08303955      0.25733172      0.13894882
N       2.21989634     -0.37908191     -0.36318053
C       3.29860538     -0.29687707      0.30033775
H      -4.18017064     -1.48834833      0.32387265
H      -1.15373903      1.39620221      0.90739883
H      -1.62257915      1.66225007     -0.76049026
H      -0.12753712     -0.34868717     -1.44095571
H       1.17132070      0.79812236      1.08480407
H       4.19237437     -0.78661085     -0.07461948
H       3.38263038      0.24908061      1.24740878
