12
b3lypvtz=-200525.26748151
C      -2.67543158      0.33770712      0.00000192
C      -1.65131671     -0.51343516     -0.00000218
C      -0.23900624     -0.16936427      0.00000636
C       0.41429137      1.04578320     -0.00001328
N       1.72258262      0.71617677      0.00007453
H       2.52697990      1.32125884     -0.00002664
N       1.89761564     -0.61806689     -0.00004029
N       0.71829244     -1.15112641     -0.00005715
H      -2.53860155      1.41213054     -0.00002652
H      -3.69552762     -0.01921727      0.00004426
H      -1.83759866     -1.58115263     -0.00000110
H       0.07042940      2.06376116      0.00000510
