16
b3lypvtz=-227779.40282059
C      -2.36648011      0.40521269     -0.56863470
C      -1.67756136     -0.40888414      0.53471494
C      -0.28649594     -0.85443922      0.14063254
O       0.03194683     -1.99702268     -0.09720789
O       0.56235458      0.18493518      0.07022299
C       1.93614127     -0.13393863     -0.33438468
N       2.67499051      1.07407708     -0.40510517
H      -1.80032645      1.30708208     -0.79851187
H      -2.46465547     -0.18100005     -1.48341673
H      -3.36694715      0.70128788     -0.25223862
H      -1.60275024      0.19438034      1.44163034
H      -2.24749192     -1.30728256      0.76486066
H       1.87519939     -0.64674512     -1.29271347
H       2.32972574     -0.82923803      0.40572013
H       3.40217139      1.17068106      0.28261804
H       3.00017894      1.32109412     -1.32388650
