15
b3lypvtz=-214526.51531352
N       0.07810350      2.39986362     -0.20796851
C       0.10017595      1.30773410      0.15387003
C       0.05708482     -0.08398170      0.60911859
C      -1.40146428     -0.59231200      0.62697040
N      -1.97760565     -0.57945377     -0.71409937
C       0.97725799     -0.98427008     -0.24066654
O       2.32368150     -0.55135566     -0.25785350
H       0.42266741     -0.09279907      1.64160132
H      -1.96173643     -0.00560142      1.36553046
H      -1.38509392     -1.62459809      0.98181639
H      -2.86051475     -1.07325423     -0.72946244
H      -2.16051527      0.37050549     -1.01710655
H       0.63504629     -0.98035934     -1.27177596
H       0.88598433     -2.00813220      0.13981435
H       2.70473150     -0.65336566      0.61967033
