16
b3lypvtz=-227747.67959997
O      -2.23493940     -0.18295060     -1.81430603
C      -2.02464536     -1.21439205     -0.96482246
C      -1.17744241     -1.18049180      0.06362542
N      -0.41726608      0.00846623      0.31860798
C       1.02559370     -0.21972247      0.49335501
C       1.75158688      1.10513292      0.66391573
O       1.62583101      1.94305175     -0.47293915
H      -1.63346673      0.52192987     -1.52488851
H      -2.62152628     -2.08398172     -1.20128093
H      -1.04927393     -2.05213165      0.69802033
H      -0.77661562      0.48355741      1.14170751
H       1.39326927     -0.72350079     -0.40157283
H       1.24236657     -0.86925217      1.35419871
H       2.81758765      0.92494909      0.80630816
H       1.38264267      1.61402234      1.56720307
H       0.69629806      1.92541365     -0.72703200
