16
b3lypvtz=-204433.26307011
N       2.95502091     -0.63286552     -0.01246986
C       2.26055533      0.56906270     -0.10025111
C       0.95936770      0.78200195      0.12426927
C      -0.07223566     -0.26212821      0.44704623
C      -1.29932103     -0.13710661     -0.42652913
C      -2.48113416      0.61863132     -0.00599045
O      -2.48207993     -0.81349015      0.01337655
H       3.76372804     -0.70431534     -0.60841125
H       2.39772282     -1.47248568     -0.03108894
H       2.90093230      1.41569921     -0.31848348
H       0.61687534      1.80856839      0.08778166
H       0.33076816     -1.27183665      0.32388556
H      -0.39215373     -0.19312070      1.49254437
H      -1.11558862     -0.22451376     -1.49503862
H      -3.13042831      1.07246638     -0.74793967
H      -2.48772318      1.09229666      0.97129886
