15
b3lypvtz=-214520.16063802
N      -2.57250095      0.39931800     -0.00710602
C      -1.58187700     -0.63989495     -0.06148394
C      -0.29401714     -0.29095642      0.03602068
N       0.21931866      0.98340285      0.24527713
C       1.60272180      0.98558325     -0.21293538
C       1.97291044     -0.46186932      0.10803055
O       0.73836623     -1.18249047     -0.05228414
H      -3.12388580      0.35667038      0.84292904
H      -3.22193086      0.33484169     -0.78171634
H      -1.84465769     -1.68541057     -0.16937878
H      -0.40487179      1.72669579     -0.02998737
H       2.20998119      1.70272704      0.33875031
H       1.70153775      1.18954609     -1.28669275
H       2.70907436     -0.89107908     -0.56828606
H       2.31814979     -0.56678731      1.13978206
