18
b3lypvtz=-210230.61234405
F      -2.61068809      0.29719633      0.00868066
C      -1.54480248     -0.50895922     -0.40053921
C      -0.33945340     -0.29961702      0.49539412
C       0.24809949      1.13312194      0.38965724
C       1.52678544      0.98666169     -0.44749604
C       2.07437185     -0.37886513     -0.01803310
C       0.81618266     -1.25827472      0.08756580
H      -1.89030046     -1.54501887     -0.36749611
H      -1.31848704     -0.24581832     -1.43802374
H      -0.66035592     -0.50008662      1.51876596
H       0.50186406      1.50085470      1.38565314
H      -0.46895768      1.83726559     -0.03246604
H       2.23244961      1.80321631     -0.29142407
H       1.28415163      0.97012168     -1.51408780
H       2.81631964     -0.78563764     -0.70596907
H       2.55333837     -0.29057651      0.96081023
H       0.93582520     -2.08126989      0.79161848
H       0.59962812     -1.70847229     -0.88598845
