15
b3lypvtz=-191225.88634023
C       1.06276324      1.80646320     -0.02492703
C       0.50769380      0.59277091     -0.01983580
C       1.33620790     -0.57707754     -0.05724974
N       1.95545864     -1.54968121     -0.08335708
C      -0.99810254      0.34476124      0.06157453
C      -1.52198185     -0.37363366     -1.18107355
N      -1.40305864     -0.39462335      1.25718876
H       0.44283242      2.69291878      0.00758944
H       2.13363143      1.94733546     -0.06331681
H      -1.46462076      1.33107900      0.11743546
H      -1.29960469      0.19280269     -2.08522621
H      -1.06690033     -1.36130245     -1.28080904
H      -2.60060392     -0.50200857     -1.09869010
H      -1.06237666     -1.34948316      1.22572109
H      -1.02911504      0.03193866      2.09654706
