11
b3lypvtz=-236301.27604152
N       1.57839826      0.97719553      0.67663585
C       1.55949252      0.17102625     -0.27981974
O       0.53874587     -0.61758948     -0.78272595
C      -0.77269687     -0.50692638     -0.26025812
O      -0.87417139     -0.83532395      1.09319075
C      -1.32917137      0.85336464     -0.43362282
N      -1.79949681      1.88344506     -0.62699210
H       0.70405445      1.05754973      1.18867997
H       2.44269617     -0.02068170     -0.88127612
H      -1.35401856     -1.18500888     -0.88890321
H      -0.69393226     -1.77705081      1.19509149
