13
b3lypvtz=-239655.85139032
C      -1.43346750      0.06931578      2.18107486
C      -0.88290883      0.70197869      1.15038970
F      -1.16402636      1.99863054      0.94874769
C       0.04983432      0.14076294      0.16041908
N       0.24701659     -1.23997483      0.15463810
N       0.67955094      0.95035817     -0.60900349
N       1.54911178      0.33165631     -1.51214336
H      -2.10999947      0.58959699      2.84159892
H      -1.19166253     -0.95777033      2.40229625
H       0.50031491     -1.57501618     -0.76732010
H      -0.52228217     -1.76911014      0.53512519
H       2.19792952     -0.30038107     -1.04497156
H       2.08058880      1.06005313     -1.96715129
