11
b3lypvtz=-236325.51334394
C      -1.94829197     -0.69815312      0.00009221
N      -0.53395267     -0.40503833      0.00013513
N       0.41462639     -1.40716036      0.00010732
C       1.52493819     -0.77306471      0.00005800
O       1.40934523      0.57599640     -0.00002055
C       0.02995561      0.83830523      0.00008914
O      -0.45805724      1.93251442     -0.00024007
H      -2.47638626      0.25208193      0.00011543
H      -2.21820471     -1.26758857     -0.88890533
H      -2.21825932     -1.26767635      0.88901499
H       2.50942175     -1.20688155     -0.00003326
