17
b3lypvtz=-215275.70792308
N       1.89641804      1.43590512     -0.34994409
C       0.89298465      1.24425350      0.39949723
C      -0.13094724      0.12677516      0.36106458
C      -1.46090672      0.67965274     -0.18996525
N      -2.55054511     -0.27881640      0.00604894
C       0.33123670     -1.11651052     -0.39565332
O       1.38857686     -1.80787173      0.25832879
H       1.98217109      0.70445091     -1.05963051
H       0.71778774      1.99474783      1.17562558
H      -0.30524565     -0.17221480      1.40204222
H      -1.35096789      0.85148958     -1.26376126
H      -1.65126004      1.66188378      0.26363142
H      -2.80922566     -0.33023429      0.98463285
H      -3.37712542      0.01204087     -0.50114405
H      -0.49946375     -1.81512760     -0.45606590
H       0.60703095     -0.85502474     -1.42687769
H       2.14578346     -1.21926441      0.33845644
