17
b3lypvtz=-217661.64062817
C       1.87504513     -1.33435656     -0.09670821
O       1.57657956     -0.00452269      0.28183214
C       0.35948093      0.51401792     -0.24353869
C       0.40227038      2.02320114     -0.06847186
C      -0.83812784     -0.08580281      0.46785376
C      -1.63327872     -1.17999804     -0.09550344
O      -2.11134299      0.16730295     -0.13516210
H       1.17444858     -2.05886462      0.33081786
H       2.87367070     -1.55292027      0.27738455
H       1.87312538     -1.44849937     -1.18780986
H       0.28208763      0.26877429     -1.31227879
H       1.24655053      2.44212041     -0.61502822
H       0.51727141      2.27734257      0.98643431
H      -0.51883286      2.47231389     -0.43888772
H      -0.82159524      0.03322817      1.54941259
H      -1.35934658     -1.59904588     -1.05893107
H      -2.17934598     -1.84626710      0.56476674
