17
b3lypvtz=-215270.76339943
C       2.20814194     -0.93057772      0.13320048
N       0.79632891     -1.17101899     -0.11063190
C      -0.18118063     -0.17852483     -0.00646827
C       0.00876892      1.14915354      0.09776135
O       1.22558907      1.76080260     -0.20479313
N      -1.45973076     -0.75852921     -0.04845695
C      -2.65211590      0.06271774      0.01121069
H       2.71366571     -1.89648321      0.17264032
H       2.69513543     -0.30267962     -0.61629867
H       2.33244693     -0.44937757      1.10258730
H       0.60721309     -1.81101561     -0.86815179
H      -0.81560516      1.81431965      0.31069360
H       1.46816640      2.34418352      0.52027475
H      -1.50416252     -1.57491549      0.54542213
H      -3.52506306     -0.58207954     -0.08715177
H      -2.75507552      0.63773646      0.94166366
H      -2.65581385      0.76811927     -0.82062880
