16
b3lypvtz=-232752.18577035
O      -0.48463571      1.60875528      0.44812985
C       0.00249412      0.36744831     -0.02510693
C      -1.08361538     -0.43411767     -0.71364665
F      -2.11704484     -0.74451899      0.16439305
C       0.75971633     -0.42000123      1.06680567
C       1.87040332     -0.74233380      0.03357929
C       1.31027904      0.38409737     -0.87318143
H      -1.05003202      2.01068370     -0.22036746
H      -0.68646413     -1.37201913     -1.10784237
H      -1.51441881      0.13897816     -1.54240868
H       1.10411743      0.26830614      1.83669925
H       0.22813449     -1.24512688      1.53730700
H       2.89953061     -0.63456496      0.36932547
H       1.75660418     -1.73091072     -0.41008910
H       1.22750183      0.18871673     -1.94390314
H       1.82768054      1.33018467     -0.72252282
