21
b3lypvtz=-172598.53774437
C      -3.02638694     -0.21374653     -0.05669195
C      -1.63497726      0.21988088      0.40486417
C      -0.52589853     -0.23462022     -0.54998191
C       0.88767929      0.11013873     -0.10668328
C       1.20603794      1.58966163     -0.01872514
C       1.99485913     -0.80598305     -0.56005048
C       1.55410810     -0.81078671      0.88383347
H      -3.79955398      0.12199498      0.63641617
H      -3.09696173     -1.30146317     -0.13051348
H      -3.26268149      0.19790903     -1.04062881
H      -1.61379914      1.30784808      0.50636573
H      -1.43722730     -0.18351060      1.40227671
H      -0.70400451      0.20111883     -1.54029696
H      -0.59908775     -1.31899992     -0.68039165
H       0.58809083      2.09373393      0.72718814
H       2.24919205      1.75038118      0.25774724
H       1.03766793      2.08301596     -0.98002708
H       2.95570618     -0.36786724     -0.79612418
H       1.73476519     -1.65942827     -1.17241038
H       2.21904621     -0.37858568      1.61991806
H       0.99864676     -1.66844284      1.24014062
