10
b3lypvtz=-223079.66549541906
C       0.22072548     -0.05342983      0.23232495
N       1.29680035     -0.68664592      0.45302392
C       2.50464871     -0.08415228      0.08873390
O       2.72632386      0.44902993     -0.97061608
N      -1.00552544     -0.63786278      0.48667715
C      -2.11388897     -0.16218918      0.27074703
N      -3.24476640      0.25889708      0.23091802
H       0.21304892      0.97089444     -0.14943543
H       3.27745064     -0.20197076      0.86414419
H      -3.87481715      0.14742932     -0.54839287
