14
b3lypvtz=-203669.23370812
C      -1.63196268      0.14603361     -1.19442773
C      -0.83867336      0.05422205      0.12482923
N      -1.02246949     -1.19261417      0.87916255
C       0.58472619      0.27808993     -0.12455427
C       1.74691941      0.48147064     -0.37230684
C       3.14914276      0.67888465     -0.63045285
O       3.61639293      1.66540686     -1.15152295
H      -2.69634830      0.02200615     -0.98924152
H      -1.48274382      1.11044520     -1.68115953
H      -1.31798596     -0.63901111     -1.88370037
H      -1.17492832      0.86679128      0.77772444
H      -0.71940419     -1.98536012      0.32423195
H      -2.00663238     -1.32671024      1.08126020
H       3.79386719     -0.15965473     -0.30994231
