17
b3lypvtz=-194390.38268135
C      -2.36338209      0.47234979     -0.09172712
C      -0.91148948      0.14544652      0.03403367
C      -0.13365435     -0.44979492     -1.11951322
C       1.33321162     -0.38034250     -0.64386409
C       1.26282594     -0.19973873      0.89160242
O       2.19777752      0.75650997      1.40342275
C      -0.14246286      0.27959755      1.11281892
H      -2.76899649      0.87771088      0.83482297
H      -2.94455748     -0.41534789     -0.35914765
H      -2.53020777      1.20372431     -0.88800061
H      -0.45318831     -1.48282227     -1.29730427
H      -0.30488446      0.08708084     -2.05662821
H       1.81526318      0.51182843     -1.04566899
H       1.92337100     -1.24601597     -0.94606869
H       1.42289641     -1.15570531      1.41017592
H       3.06447387      0.34190180      1.44662517
H      -0.46689626      0.65381750      2.07482103
