13
b3lypvtz=-234623.12857873
C      -0.05239031     -0.73527026      0.38658901
C      -0.92834488      0.14725908     -0.12914729
N      -0.65864316      1.50153488     -0.27897819
N      -2.21030982     -0.20620060     -0.55076583
O       1.24354984     -0.34728220      0.67455348
N       2.21908425     -0.79086140     -0.35826854
N       3.35166930     -0.54998052     -0.02084719
H      -0.32070917     -1.75603899      0.62062088
H       0.29950086      1.73755874     -0.07071448
H      -0.96155481      1.87613434     -1.16691473
H      -2.43294308     -1.17871862     -0.40168972
H      -2.93225080      0.39852995     -0.18136919
H       3.38334178     -0.09666440      0.91209117
