15
b3lypvtz=-191167.83848222
C      -1.18126883      1.03364921      0.60083698
C       0.11654943      0.47542203      1.08461570
C      -0.60459172     -0.17638394     -0.09531183
C       0.57210408      0.25657543     -0.93831269
N       1.21840741      0.98203839      0.23855950
C       1.85104769     -0.20718356     -0.35416908
N      -1.34961850     -1.38802315     -0.15763008
H      -2.03847290      0.81319354      1.22334530
H      -1.19398115      2.00186484      0.11427744
H       0.29317102      0.12159609      2.09071938
H       0.52264946      0.72067498     -1.91666382
H       2.76025599      0.02160742     -0.89557209
H       1.87957201     -1.12557642      0.22325176
H      -2.08561015     -1.34488987     -0.85256675
H      -0.76021384     -2.18456501     -0.36537975
