15
b3lypvtz=-216917.03516934
C       2.40720676     -0.26898257     -0.00601272
O       1.14471671     -0.03133277     -0.61167597
C       0.21000521      0.57560004      0.24579946
C      -1.03454327      0.88357520     -0.53734308
C      -2.03013148      0.12456914     -0.10673419
C      -1.56322352     -0.72627495      1.03410704
O      -0.22506582     -0.29172055      1.28785151
H       3.05791925     -0.67416693     -0.77823244
H       2.32677043     -0.98653730      0.81391238
H       2.84345120      0.66141413      0.37709097
H       0.68149948      1.44365247      0.72563720
H      -1.04697549      1.58310786     -1.35852697
H      -3.03305643      0.08296741     -0.50613502
H      -1.58651404     -1.79456725      0.78670743
H      -2.15205900     -0.58130394      1.94478258
