13
b3lypvtz=-216127.18822271668
C      -1.50066379     -0.07622282     -0.77610907
C      -0.48147204      0.27567299      0.28563060
C       0.05066625     -0.71135283      1.25702728
C       0.88419941     -0.32556808      0.32979305
C       2.24543590     -0.38521389     -0.19441190
O       2.65731990      0.31993217     -1.08504074
O      -0.65538011      1.58073883      0.80612363
H      -1.36181104     -1.09502866     -1.13530587
H      -1.40945555      0.59594238     -1.63367369
H      -2.51191586      0.02335084     -0.37788934
H      -0.13235076     -1.26723385      2.16163079
H       2.89602819     -1.13789349      0.29128127
H      -0.68060048      2.20287639      0.07094398
