16
b3lypvtz=-204445.2778685
C      -2.59605002     -0.30962511      0.22193268
N      -1.57951793      0.59846729     -0.29242090
C      -0.23728381      0.33129974     -0.08773583
C       0.78419294      1.17817974      0.07015972
C       2.07454463      0.42031923      0.10542288
O       1.69576536     -0.96381553      0.04729320
C       0.29285194     -1.07992831     -0.14324274
H      -2.45239174     -1.30743671     -0.19185805
H      -3.57533538      0.03930127     -0.10288512
H      -2.60383634     -0.39080797      1.31652638
H      -1.81257372      1.57059556     -0.15926863
H       0.72181885      2.25486771      0.13213724
H       2.73360153      0.65127112     -0.74304038
H       2.65330535      0.58775843      1.02191348
H       0.07139233     -1.55068790     -1.11165043
H      -0.12630499     -1.72306757      0.63948251
