13
b3lypvtz=-242064.81575761
C      -2.53468231     -0.47095826      0.41502558
N      -1.14530777     -0.83703788      0.25606314
C      -0.30291232      0.09029438      0.06782126
C       1.11173474     -0.14973907     -0.10440156
C       2.03221836      0.80216455     -0.30407084
O       3.35197235      0.57615291     -0.46391356
F       1.54444099     -1.43491018     -0.05991387
H      -2.71923216      0.61086520      0.35438716
H      -2.89541544     -0.83563959      1.37960913
H      -3.12963943     -0.97269317     -0.35165492
H      -0.58634758      1.15163534      0.02125163
H       1.76041373      1.84564783     -0.35144037
H       3.51275688     -0.37578205     -0.40944304
