15
b3lypvtz=-191240.57486865
C      -0.72958270     -1.69902626      0.73207747
C       0.04563932     -0.53929639      0.21115317
C      -0.37885604      0.71810490     -0.16739246
N      -1.72274671      1.16922672     -0.09994480
C       0.76830380      1.46161768     -0.56974157
C       1.86013023      0.63997273     -0.42989956
N       1.41260523     -0.56974973      0.02754169
H       1.99529514     -1.36283259      0.22395818
H      -1.70238304     -1.35245479      1.08125834
H      -0.22466184     -2.17625954      1.57663534
H      -0.90470937     -2.47255669     -0.02343285
H      -2.32091138      0.71729973     -0.77932359
H      -1.78488782      2.16705112     -0.24371061
H       0.78251378      2.48102801     -0.91987174
H       2.90415143      0.81787510     -0.61920701
