15
b3lypvtz=-193577.06211761
C       2.38273607      0.22873237     -0.19255756
C       1.58375008     -0.54760619      0.53500909
C       0.10939968     -0.63605226      0.46519309
C      -0.64827450      0.17512426     -0.56378663
C      -2.13997396     -0.06694440     -0.38947556
O      -2.06841696      0.28414195      1.02714057
C      -0.68427020      0.58774047      0.87950303
H       3.45075499      0.23923404     -0.02310736
H       2.01356305      0.87651769     -0.97708534
H       2.03223664     -1.17563340      1.29871125
H      -0.31283986     -1.58820446      0.77057359
H      -0.17637966      0.63170519     -1.41951475
H      -2.51392107     -1.08136517     -0.54513932
H      -2.76535957      0.65155316     -0.92139646
H      -0.26300473      1.42105676      1.42403236
