18
b3lypvtz=-205199.69931999
C      -0.28772779      2.27683141      0.13999820
C      -0.03518760      1.14025818     -0.49690265
C       0.06823727     -0.21306100      0.14830642
C      -1.11068595     -1.12664955     -0.24122017
N      -2.42728503     -0.70825671      0.22090573
O       1.24745534     -0.89889025     -0.26325864
C       2.44960205     -0.36796553      0.26097989
H      -0.40848281      2.30771212      1.21686630
H      -0.38195577      3.21744069     -0.38719784
H       0.09156480      1.13860510     -1.57659427
H       0.07240158     -0.09534718      1.24248565
H      -1.13077760     -1.21997687     -1.32947251
H      -0.89622993     -2.12099595      0.15328869
H      -2.46351753     -0.68612506      1.23332183
H      -2.64129996      0.22827054     -0.10116388
H       2.62861064      0.65937705     -0.07243364
H       3.25880673     -1.00283971     -0.09564557
H       2.44505258     -0.38053326      1.35813645
