12
b3lypvtz=-179610.94505837
C      -0.57711613     -1.59741656      0.22755276
C      -0.13985745     -0.16562786      0.07279231
C      -0.85940704      0.85039326      0.59169800
C      -0.50594016      2.22010193      0.48238949
N      -0.25609609      3.34472908      0.41719633
C       1.06513245      0.05911522     -0.64583183
C       2.08852424      0.20125461     -1.25971181
H      -1.50541239     -1.66838273      0.79174757
H       0.19381145     -2.17581881      0.74007645
H      -0.72215121     -2.05714156     -0.75187051
H      -1.77253539      0.63895949      1.13322916
H       2.99104770      0.34983393     -1.79926792
