18
b3lypvtz=-202806.19314658
C      -2.79678858     -0.67786425      0.09879385
C      -1.69202179      0.32620490     -0.20302191
N      -0.38627547     -0.25981038      0.07339355
C       0.79564913      0.45333327      0.02086430
C       0.75091798      1.95091045      0.07886259
N       1.94958569     -0.11123377     -0.03019676
N       1.87592689     -1.53969734     -0.08268323
H      -3.77612646     -0.24154916     -0.10043092
H      -2.76174737     -0.98984566      1.14317175
H      -2.69867977     -1.56918188     -0.52499661
H      -1.82051921      1.20812671      0.42484360
H      -1.77778341      0.66228786     -1.24503587
H      -0.26081011     -1.19965912     -0.28610937
H       1.76961584      2.32655046      0.04376452
H       0.27890494      2.29969412      1.00049652
H       0.18665066      2.36982948     -0.75723707
H       2.83223401     -1.85942848     -0.16134911
H       1.52836904     -1.89140723      0.81017616
