15
b3lypvtz=-191200.66761927
C       2.54293983      0.16550195      0.11713483
N       1.49325617     -0.45900488      0.43766732
C       0.22500022      0.07384518      0.02331074
C      -0.87361333     -0.92951948     -0.43260635
C      -1.91417253     -0.19322857      0.46242251
C      -0.74380225      0.48000815      1.15403440
N      -0.63055149      1.00207789      2.29012051
H       2.54151222      1.08078854     -0.48797583
H       3.50903115     -0.21264433      0.44323846
H       0.32345148      0.90471446     -0.69193643
H      -1.07201494     -0.97069638     -1.50112001
H      -0.64846909     -1.92744959     -0.06206150
H      -2.53161821      0.51557099     -0.09242484
H      -2.55968286     -0.79651011      1.09805318
H       0.33873363      1.26654617      2.47883833
