17
b3lypvtz=-191994.10160457
C      -2.01837892      1.16931615     -0.22572914
C      -1.47260194     -0.07808395      0.46581613
N      -1.73479547     -1.25198570     -0.37808498
C       0.03213732      0.00177283      0.76550599
C       0.90896612      0.14086763     -0.49261135
C       2.33200615      0.05915520     -0.18567916
N       3.45082741     -0.00790825      0.07571614
H      -1.78954478      2.06725274      0.34975194
H      -3.10415846      1.10803049     -0.32383946
H      -1.60428846      1.28133572     -1.22839152
H      -1.97043526     -0.15412211      1.44328753
H      -1.54491283     -2.10907304      0.12926221
H      -2.70921533     -1.28461584     -0.65346743
H       0.33185447     -0.90212419      1.30150609
H       0.22104210      0.83777099      1.44125165
H       0.72593266      1.09399370     -0.99196496
H       0.65154422     -0.64591139     -1.20314768
