13
b3lypvtz=-216103.06303113
C      -1.19700889      1.00711432     -0.11258210
C       0.34451832      1.04872856      0.01800046
C       0.29235290     -0.23972336      0.91632831
C      -1.03034028     -0.47466490      0.21580997
C       0.30721802     -0.87408075     -0.43506106
O       0.81926194      0.26693773     -1.12601485
O      -1.99162237     -1.38656928      0.60385866
H      -1.61183894      1.30615257     -1.07703197
H      -1.68517839      1.53295198      0.70750969
H       0.90214606      1.96221431      0.18795362
H       0.68134456     -0.51533958      1.88409522
H       0.55827131     -1.87063000     -0.76522868
H      -2.40512423     -1.76029159     -0.18223729
