14
b3lypvtz=-232000.48259579
O       2.64009981     -0.00000011     -0.40041561
C       1.47822826     -0.00000004     -0.11637410
C       0.46433941      1.10403130      0.19448694
C      -0.46173532      0.00000035      0.79271648
C      -1.91245676      0.00000027      0.37679450
F      -2.02019514      0.00000002     -1.01781873
C       0.46433949     -1.10403121      0.19448804
H       0.06069158      1.53456686     -0.72422702
H       0.80646224      1.90587047      0.84763270
H      -0.42175603      0.00000087      1.88337910
H      -2.43114337     -0.88973121      0.74144992
H      -2.43114336      0.88973188      0.74144961
H       0.80646238     -1.90586962      0.84763468
H       0.06069181     -1.53456785     -0.72422551
