15
b3lypvtz=-216924.59124309
C      -0.56493866      1.48279937      0.56192656
C      -0.35911318      0.29429683     -0.00431573
C      -1.52188678     -0.58348355     -0.31864508
O      -2.67268989     -0.34037116     -0.04443363
C       1.01117944     -0.24197254     -0.37020051
C       1.49561268     -1.29323923      0.62438260
O       2.00969140      0.77105486     -0.40771493
H      -1.57140848      1.80049699      0.79902932
H       0.25726892      2.14425335      0.79712898
H      -1.26683527     -1.52094895     -0.85523393
H       0.93182587     -0.71686064     -1.35913577
H       0.78676878     -2.11832567      0.70211653
H       2.45831403     -1.69078812      0.30450670
H       1.61057025     -0.84187755      1.61007340
H       1.76328389      1.42188902     -1.07329050
