17
b3lypvtz=-217679.49543134
C      -3.11208476      0.07277444     -0.24343689
C      -2.02755720     -0.21742396      0.46282054
C      -0.75323993     -0.76387043     -0.10459509
C       0.48503752      0.04790326      0.27453294
O       0.38604696      1.40979149     -0.07906647
O       1.57933796     -0.58609988     -0.34105093
C       2.84570156     -0.09200009      0.07146362
H      -4.01031938      0.45176643      0.22572373
H      -3.14315434     -0.06305559     -1.31853735
H      -2.04429758     -0.06378949      1.53839891
H      -0.58713479     -1.78473502      0.25199373
H      -0.80770379     -0.81787221     -1.19571484
H       0.62653036      0.06374528      1.36227089
H       0.09833840      1.46544863     -0.99803535
H       3.59803955     -0.66444128     -0.46701656
H       2.99145686     -0.23431453      1.14864203
H       2.95769360      0.96846496     -0.16285290
