20
b3lypvtz=-182675.70446012
C       2.91481742     -0.15538798     -0.03083785
N       1.56809187      0.37880049     -0.05125716
C       0.59908856     -0.42400347      0.01690122
C      -0.85660390     -0.00703765      0.00617095
C      -1.00649419      1.51294133     -0.09806479
C      -1.50274875     -0.51831763      1.30955362
C      -1.53418396     -0.69220554     -1.19762873
H       3.43816683      0.15437932     -0.93778595
H       3.45993558      0.27591183      0.81133439
H       2.95326921     -1.25093345      0.04487126
H       0.76406095     -1.51241815      0.09075831
H      -0.52427394      2.01368712      0.74091263
H      -2.06370720      1.78603432     -0.10458605
H      -0.54474201      1.89070358     -1.00987126
H      -2.57155841     -0.29602909      1.31464778
H      -1.38650863     -1.59923064      1.41555256
H      -1.05364632     -0.04260530      2.18296297
H      -1.41861601     -1.77758379     -1.15676418
H      -2.60323530     -0.47100133     -1.20646343
H      -1.10794679     -0.34188797     -2.13908629
