11
b3lypvtz=-236272.77295478803
C      -1.70081597     -0.10517710      0.47592398
O      -0.37520134     -0.58124083      0.68389464
C       0.61649591     -0.04823758     -0.08310699
N       0.37677874      0.87021761     -0.98238565
N       0.20845818      1.67031251     -1.77446464
C       1.98729085     -0.49225253      0.08064497
O       2.33069824     -1.33495792      0.87911954
H      -2.04364177     -0.30990242     -0.54200695
H      -1.77714290      0.96634083      0.68014991
H      -2.32230796     -0.64988789      1.18033006
H       2.69938801      0.01478532     -0.59809891
