19
b3lypvtz=-171829.23900962
C      -2.43015026     -0.88584066     -0.28798079
C      -1.42537136     -0.09715353      0.08644580
C      -1.55506993      1.40192572      0.09925955
C      -0.09748649     -0.67538666      0.52149644
C       1.06259410     -0.33361429     -0.39777940
C       1.93232250      0.87090292     -0.15200148
C       2.47793994     -0.51391807      0.07976691
H      -3.38464227     -0.48113442     -0.60084085
H      -2.33237855     -1.96440105     -0.29244805
H      -0.82914530      1.86701431     -0.57137569
H      -1.35718521      1.80180944      1.09828251
H      -2.55276509      1.71861431     -0.20267927
H       0.14164054     -0.31579792      1.52960816
H      -0.19037205     -1.76193477      0.59132827
H       0.88475130     -0.58048369     -1.43821144
H       1.71948402      1.47804155      0.71792279
H       2.29597867      1.42927944     -1.00365016
H       3.21071184     -0.89990657     -0.61515989
H       2.62586360     -0.83235706      1.10345960
