14
b3lypvtz=-180386.91027806
C      -1.67743727      1.34374044     -0.00001627
C      -0.52519088      0.66699146      0.00001174
C       0.82107971      1.26183887      0.00003006
N       1.79231635      0.43591360      0.00000078
C       1.24327622     -0.92676084      0.00000489
C      -0.27182434     -0.78939867      0.00000900
C      -1.15979709     -1.77967999      0.00001193
H      -1.68668925      2.42568911      0.00000171
H      -2.63804595      0.84603127     -0.00003992
H       0.99534172      2.33395828     -0.00000680
H       1.61702347     -1.46143541      0.87706244
H       1.61701687     -1.46143454     -0.87705572
H      -0.85022522     -2.81690934      0.00000541
H      -2.22604734     -1.59242625      0.00001776
