13
b3lypvtz=-234631.60042099
C      -2.34053521      0.16195201      0.02888102
N      -1.01377290     -0.18836752      0.49823439
C       0.08857627      0.19147711     -0.20103083
N       0.06841552      0.71113669     -1.35036528
O       1.20609601     -0.13299443      0.59724700
N       2.41413334      0.20004360     -0.01538489
N       3.33122609     -0.09825914      0.73466055
H      -2.52083827      1.24052713      0.05399617
H      -3.07516832     -0.33959996      0.65600387
H      -2.46378852     -0.17260962     -0.99919342
H      -0.87739180     -0.36454074      1.47828069
H       1.00076411      0.87077955     -1.71061024
H       4.18228369      0.16843565      0.22928098
