14
b3lypvtz=-201242.98090262
N      -2.51934715     -0.64203844     -0.46221642
N      -1.92588211     -0.10598501      0.48727706
N      -1.19753659      0.99632693      0.15108393
C       0.06479600      0.91922600      0.02568688
C       0.91112735     -0.27973809      0.09823298
C       2.14306385     -0.35351855     -0.78711885
C       2.30824170     -0.13909608      0.67817959
H      -3.07560707     -1.39562803     -0.04259655
H       0.57209036      1.86646555     -0.15099948
H       0.39536480     -1.20938470      0.28577048
H       2.32750205      0.47979257     -1.45106237
H       2.38539837     -1.32020788     -1.20441342
H       2.60773456      0.84124489      1.02275634
H       2.66596490     -0.95653415      1.28756984
