20
b3lypvtz=-182664.47681588
C       3.52612530     -0.00920147      0.38182281
C       2.34400862      0.51925406     -0.44171286
C       1.11576964     -0.33289347     -0.31697977
C      -0.05890650      0.06713861      0.15667141
C      -1.26762018     -0.81387088      0.29835085
N      -2.42601991     -0.31667371     -0.45387540
C      -3.11301713      0.80240823      0.17656333
H       4.41220590      0.61178339      0.23976744
H       3.78452036     -1.02923521      0.08974405
H       3.28636535     -0.02015453      1.44625449
H       2.64334849      0.56406273     -1.49467246
H       2.11117239      1.54358241     -0.14123388
H       1.22368255     -1.36735911     -0.63936355
H      -0.16882312      1.09828694      0.48209950
H      -1.02527584     -1.80924149     -0.07769997
H      -1.50543442     -0.92321840      1.37237323
H      -3.07951882     -1.07797821     -0.58317049
H      -2.48704235      1.69553208      0.14720624
H      -3.38601603      0.62185557      1.22941452
H      -4.02355829      1.02878346     -0.37863848
