15
b3lypvtz=-219493.39565189
C      -3.50642650     -0.69770538      0.16235128
C      -2.51035006     -0.07082866     -0.06608353
C      -1.30026877      0.70372205     -0.32096231
N      -0.10047230      0.00363289      0.13444473
C       1.10361023      0.81043039      0.02496992
C       2.34203868      0.04775862      0.44147574
F       2.64129984     -0.96000008     -0.46782096
H      -4.38729763     -1.25730766      0.35526874
H      -1.20596062      0.87835488     -1.39738386
H      -1.41831422      1.69858326      0.14257043
H      -0.23373223     -0.30949161      1.08893819
H       1.06550245      1.73769699      0.62553519
H       1.22216581      1.11798229     -1.01760238
H       3.20044066      0.72179736      0.48719606
H       2.20898065     -0.42001535      1.42132476
