18
b3lypvtz=-181919.64616272
C       2.40630808     -0.05876997      0.01265205
C       0.92224455     -0.01094568     -0.34230667
C       0.26536569      1.30914723      0.09929477
C      -1.23802127      1.22561605      0.06890431
C      -1.87676801      0.05687306     -0.04612519
N      -1.22925956     -1.16948917     -0.15632474
C       0.16719717     -1.20103829      0.25968260
H       2.55107903     -0.02767794      1.09578909
H       2.93821361      0.79323595     -0.41474098
H       2.88009022     -0.96860429     -0.36208833
H       0.81763905     -0.08876683     -1.42881783
H       0.61253499      2.11505453     -0.55533703
H       0.61768038      1.57712929      1.10398899
H      -1.81655112      2.13808779      0.10893704
H      -2.95702380      0.00820224     -0.10281347
H      -1.77563502     -1.96100172      0.14197205
H       0.61213261     -2.13934368     -0.07728424
H       0.26306339     -1.16284855      1.35587159
