12
b3lypvtz=-223832.49436551
C      -2.13331830     -0.39159107      0.00002377
C      -0.64181854     -0.36483619      0.00000016
C       0.22506472      0.70362321     -0.00002413
O       0.07512192      2.04633017     -0.00002369
N       1.45739474      0.15972006     -0.00008380
H       2.34841454      0.62736157      0.00007688
N       1.38301997     -1.19501361     -0.00001733
N       0.12380641     -1.49662170     -0.00000997
H      -2.55749053      0.09314149     -0.88345528
H      -2.46603459     -1.42805112      0.00001378
H      -2.55746361      0.09311618      0.88352977
H      -0.86329872      2.26126301     -0.00000616
