14
b3lypvtz=-226991.07640473
C      -2.78143895     -0.03007196      0.01012057
C      -1.62436394     -0.63804012      0.22624960
C      -0.29778300      0.06836426      0.28177991
O      -0.30060295      1.34850223     -0.27937942
O       0.63843560     -0.80607814     -0.36325365
C       1.97434761     -0.57198446     -0.18296123
N       2.57192121      0.39239982      0.35790469
H      -3.70949135     -0.58454977     -0.00931075
H      -2.84090585      1.03980506     -0.14254477
H      -1.57657509     -1.70679924      0.39580843
H       0.02440388      0.20966606      1.31824639
H      -0.64274944      1.28336294     -1.17976574
H       2.52923543     -1.40500032     -0.60625541
H       1.94861782      1.13510064      0.66599337
