13
b3lypvtz=-213767.65435173
C      -3.02685276     -0.27975492     -0.01262005
N      -1.88300555      0.28180219     -0.03025852
C      -0.73940356     -0.48790057      0.01357294
C       0.48843578      0.09880477      0.02464052
N       0.72759983      1.43434339      0.05319426
C       1.67534001     -0.77577260      0.01478345
O       2.80930854     -0.35187062     -0.03981429
H      -3.92082500      0.33373903     -0.05531617
H      -3.15879374     -1.36551395      0.04300869
H      -0.80651494     -1.57433969      0.03763075
H      -0.03742653      2.05835071     -0.13400201
H       1.66508828      1.73167160     -0.15897742
H       1.46143864     -1.85855435      0.04962684
