14
b3lypvtz=-227020.80342359
C       3.08615353     -0.25794764     -0.02186012
C       1.84640669     -0.00653881      0.37577729
C       0.82439245      0.67883256     -0.47407521
O      -0.32772738     -0.16510599     -0.71266798
C      -1.29756461     -0.13096915      0.23625374
N      -2.29403830     -1.00241389     -0.08508233
O      -1.26899301      0.55589063      1.23195161
H       3.80801214     -0.72980898      0.63151727
H       3.42832154      0.00793785     -1.01563813
H       1.52144071     -0.27748998      1.37432785
H       0.48252444      1.59947584     -0.00099028
H       1.22016295      0.89870283     -1.46376737
H      -2.32609659     -1.40170750     -1.00573695
H      -3.14132155     -0.94289177      0.44913360
