13
b3lypvtz=-190440.85847812
C      -2.91658958     -1.19369848      0.00154527
C      -2.22554408     -0.20756206     -0.00069074
C      -1.47539528      0.99104365     -0.00338256
C      -0.13001018      1.07405992     -0.00040979
N       0.70896904     -0.01692874      0.00788256
C       1.97110503      0.19494379      0.01363542
N       2.87346211     -0.81375557     -0.01843906
H      -3.50956175     -2.07310796      0.00299788
H      -2.03756260      1.91710914     -0.00796007
H       0.31891285      2.07020389     -0.00398244
H       2.41511561      1.19704021      0.02084742
H       2.53574799     -1.75769257      0.07138251
H       3.84408585     -0.63425422      0.15753758
