14
b3lypvtz=-226990.94531172
C       3.44017538     -0.33373767      0.07130632
O       2.27991806      0.47743175     -0.04773303
C       1.09927011     -0.19133159     -0.03201170
C      -0.07238187      0.45012048      0.00285996
N      -1.26338317     -0.26783146     -0.00867234
C      -2.36728247      0.34632980      0.01957810
O      -3.55243099     -0.29725048      0.01285737
H       3.49277754     -1.06954893     -0.73669655
H       3.46339382     -0.85284956      1.03388299
H       4.29613532      0.33305598      0.00341852
H       1.14143442     -1.27513826     -0.06312927
H      -0.09093100      1.53865969      0.03627946
H      -2.50317923      1.42768831      0.05154967
H      -3.35689091     -1.24554207     -0.01609749
