11
b3lypvtz=-236315.85835767
N       1.91385407      0.61654538     -0.30411093
C       0.89583970     -0.13056701     -0.27515884
O       0.87032540     -1.41396480     -0.67495206
C      -0.39516167      0.46254727      0.24950440
N      -0.50272576      1.65956019      0.65654057
C      -1.64733487     -0.35361949      0.31799037
O      -1.72691980     -1.51346841     -0.02845113
H       2.72773850      0.12754347     -0.67119448
H      -0.03143298     -1.77735364     -0.55469819
H       0.40762954      2.12481429      0.56624372
H      -2.51191212      0.19806275      0.71838657
