14
b3lypvtz=-231992.77628999
C      -2.94345160     -0.20739384      0.22116989
C      -1.80876651      0.25645213     -0.30161873
C      -0.48085284     -0.08283748      0.17103561
C       0.67266686      0.36886455     -0.31973803
C       2.03058433      0.01733822      0.18582721
O       2.86830638     -0.23130363     -0.94528319
F      -0.46492154     -0.94514956      1.22112652
H      -3.90196806      0.08296326     -0.18484263
H      -2.94237311     -0.88618285      1.06233068
H      -1.83018531      0.93657140     -1.14460028
H       0.62805948      1.05477004     -1.15541908
H       1.97726418     -0.85392375      0.84388819
H       2.42850925      0.85596792      0.77426086
H       3.76712849     -0.36613641     -0.63138004
