15
b3lypvtz=-214521.94245118
C       2.59328367      0.46297585     -0.33798898
C       1.22987593     -0.16413963     -0.37738140
O       0.80995547     -0.87780140      0.79504172
C       0.11037651      0.32655649      0.44413448
C      -1.31717466      0.19385388      0.00391066
N      -2.13693568      1.16987956     -0.07084801
N      -1.66920312     -1.07188963     -0.38628877
H       3.36541790     -0.29478527     -0.48293088
H       2.76970183      0.95341059      0.61909316
H       2.69424526      1.20185934     -1.13542703
H       0.96329356     -0.66875815     -1.30196926
H       0.29574896      1.16482893      1.10908911
H      -1.69308909      2.03917371      0.21342849
H      -2.65287037     -1.22080758     -0.54005305
H      -1.15199916     -1.82989269      0.02847277
