10
b3lypvtz=-223046.17540265
C      -0.54570845      1.25022404     -0.24414930
N      -1.75794417      0.89039655      0.00915249
C      -1.65694488     -0.52631256      0.13424163
N      -0.48858257     -1.05443320     -0.02175635
C       0.31669625      0.06073504     -0.27830764
N       1.57816945      0.13350827     -0.51144590
O       2.20722202     -1.07401028     -0.50183552
H      -0.23609165      2.27302978     -0.40283467
H      -2.54362526     -1.10522667      0.35175200
H       3.12680927     -0.84791098     -0.68897388
