11
b3lypvtz=-210612.90569258
N       0.39627687      2.01888891     -0.00020315
C      -0.11255773      0.85930958      0.00013132
N      -1.49060711      0.59048308      0.00050330
C      -1.54914715     -0.70142297      0.00007112
N      -0.35363856     -1.44647281     -0.00023795
C       0.55474478     -0.52004519      0.00001625
N       1.87408598     -0.72706482     -0.00127764
H       1.41578015      1.98645280     -0.00086395
H      -2.49012691     -1.23595121      0.00010298
H       2.52692006      0.03491505      0.00711909
H       2.22989462     -1.66789041      0.00367664
