18
b3lypvtz=-181908.67057022
C       2.56018400      0.28275262     -0.57459658
N       1.36008396     -0.54177022     -0.59666980
C       0.29625126     -0.11379685      0.31009064
C      -0.82172654     -1.17969418      0.42236200
C      -2.14693295     -0.40009638      0.57004316
C      -1.79152774      0.97225201      0.05412451
C      -0.47891221      1.13512449     -0.07383416
H       3.27744639     -0.10378533     -1.29948141
H       3.02414383      0.22006130      0.41227839
H       2.39730288      1.34816223     -0.79691488
H       0.99256209     -0.59898729     -1.53978675
H       0.77569291      0.04010963      1.28475929
H      -0.83265820     -1.75554278     -0.50552410
H      -0.64027085     -1.88383547      1.23288907
H      -2.97318288     -0.85877927      0.02196581
H      -2.46715227     -0.34381966      1.61627071
H      -2.53631774      1.73129183     -0.14903006
H       0.00511408      2.05035333     -0.38894582
