22
b3lypvtz=-183436.46562099
C       3.25190175      0.16127361     -0.29367643
C       1.82967157     -0.38090730     -0.43267824
C       0.93418803      0.01508790      0.75088217
N      -0.43741299     -0.48597044      0.73893578
C      -1.34517142      0.01899506     -0.29760929
C      -1.72041466      1.47611740     -0.02247169
C      -2.58944434     -0.86633179     -0.31738444
H       3.87938684     -0.13971242     -1.13379185
H       3.72619713     -0.20239444      0.62088376
H       3.25580146      1.25296784     -0.25324706
H       1.39320399     -0.02146333     -1.36788004
H       1.85665749     -1.47327760     -0.50485690
H       1.40074838     -0.33811717      1.67568564
H       0.90488881      1.10441693      0.83239187
H      -0.42606275     -1.49843534      0.71230984
H      -0.88930060     -0.02614078     -1.29956882
H      -2.41843724      1.83911143     -0.77901149
H      -0.84989254      2.13251174     -0.04028783
H      -2.19000118      1.56435804      0.95890076
H      -3.30192822     -0.52145325     -1.06752335
H      -2.33286342     -1.90190925     -0.55412687
H      -3.07896108     -0.85268984      0.65838848
