16
b3lypvtz=-181108.05140064
C       3.48002859      0.28052332     -0.64580526
C       2.09115081      0.24772906     -0.21128293
C       0.94049776      0.21760289      0.13531110
C      -0.42734847      0.19856406      0.57851269
C      -1.12888552     -1.05549926      1.00100895
N      -1.43980930     -0.43859667     -0.27422932
C      -2.71619402      0.25372686     -0.36906292
H       4.04976467      1.02234986     -0.08237850
H       3.96213981     -0.68869972     -0.50267201
H       3.55464733      0.53739578     -1.70456675
H      -0.74788045      1.09641883      1.10151456
H      -0.60252167     -1.99995701      0.95425934
H      -1.85040018     -0.96227752      1.80799236
H      -3.01560890      0.74636298      0.56825325
H      -3.49096972     -0.46453368     -0.64128930
H      -2.65861071      1.00889022     -1.15368268
