17
b3lypvtz=-194368.5169192
C      -1.21659430      0.69927871      1.27786346
C      -0.47638022     -0.07396151      0.19849663
C       0.97689004     -0.25663427      0.47002944
C       1.95846919      0.24792612     -0.26755757
O       3.27906169      0.05540519      0.04826608
C      -0.96564651      0.07011845     -1.21971918
C      -1.22848478     -1.20820664     -0.46301393
H      -1.09666314      0.21862554      2.25199064
H      -0.83233107      1.71808631      1.36084840
H      -2.28529898      0.75453551      1.06283134
H       1.24282394     -0.82172549      1.35894984
H       1.76631651      0.83891187     -1.15640657
H       3.83075897      0.48197341     -0.61139485
H      -0.24991361      0.03209494     -2.02845305
H      -1.79839222      0.73733079     -1.39791060
H      -2.23858065     -1.40911239     -0.13083455
H      -0.66603486     -2.08454652     -0.75398552
