15
b3lypvtz=-216924.83187415
C      -2.15608692     -0.39400555     -0.06398259
C      -0.83326848     -0.38676664     -0.11108649
C       0.12040051     -1.52860672      0.15690894
C       1.46184781     -0.80460637      0.30129724
O       1.33845824      0.34319768     -0.55286207
C       0.01616903      0.82742160     -0.43863082
O      -0.12446100      1.76730447      0.61106889
H      -2.73048228      0.49983255     -0.26961809
H      -2.71287988     -1.28618264      0.19312200
H      -0.15404639     -2.10692793      1.03856586
H       0.15099597     -2.20879009     -0.69810952
H       2.31879422     -1.37889821     -0.04381203
H       1.63501345     -0.48870167      1.33424085
H      -0.22780419      1.29128737     -1.39788130
H       0.44281091      2.51899215      0.40417313
