16
b3lypvtz=-204427.93053225
C      -1.76375400      1.60104535     -0.04595136
C      -0.39692333      0.99778491     -0.06707575
C      -0.05563888     -0.27785432     -0.29537227
C      -1.02359806     -1.39640343     -0.58692956
C       1.35491828     -0.70688550     -0.27858500
N       2.32516947      0.08538115     -0.05058378
O       3.55446122     -0.59058206     -0.09584050
H      -1.83921859      2.40363235     -0.78599291
H      -2.56026659      0.88737527     -0.24515500
H      -1.96261691      2.06367977      0.92559961
H       0.41568422      1.68921756      0.12866994
H      -0.81063810     -1.85033846     -1.55879845
H      -0.93323135     -2.19173766      0.15817931
H      -2.05818458     -1.06505772     -0.59492678
H       1.56588404     -1.75910589     -0.47262563
H       4.18795314      0.10984869      0.08947916
