11
b3lypvtz=-233914.09121657
N       0.96765188      0.00440743      0.05344813
C       0.29002868     -0.95155909     -0.40752282
N      -1.06644411     -1.13746992     -0.38526010
H      -1.71444755     -0.37382423     -0.31352154
N      -1.45011094     -2.26779118     -1.12397612
C      -0.33006516     -2.79038153     -1.45771808
N      -0.11099412     -3.90647279     -2.21520438
O       0.77671605     -2.10373402     -1.05033376
H       1.96175852     -0.12528432     -0.09338790
H      -0.92198143     -4.49731973     -2.30993761
H       0.73518818     -4.40817061     -1.99488583
