14
b3lypvtz=-226989.71918331
O       2.35682819     -1.31932194      0.31900558
C       2.33171853     -0.50213981     -0.55948096
O       1.31658926      0.32748625     -0.83682101
C       0.16021763      0.22392240      0.01696628
C      -0.90997339      1.24253429     -0.40379601
N      -1.68542767      0.15210909     -1.04636219
C      -0.83815305     -0.87741725     -0.39252803
H       3.14997645     -0.31542373     -1.26675339
H       0.48860183      0.22488060      1.05190255
H      -1.39434454      1.71355103      0.45684695
H      -0.57117338      2.01794282     -1.09218884
H      -2.66589364      0.12036089     -0.80156720
H      -0.45348619     -1.63950883     -1.07103165
H      -1.28558003     -1.36907580      0.47610791
