12
b3lypvtz=-202936.78866126
C      -2.16926578     -0.14776323      0.05767720
C      -0.95634230     -0.61116780     -0.24312351
C       0.29051353      0.14063022     -0.15524197
O       0.26721982      1.44649751      0.18105317
C       1.47861057     -0.45954738     -0.39536697
C       2.72297230      0.20715034     -0.32941109
N       3.75811398      0.71713072     -0.28696815
H      -2.35290490      0.85596908      0.42445499
H      -3.04458039     -0.77357340     -0.03927311
H      -0.84675850     -1.63275521     -0.58438161
H      -0.63953659      1.76677231      0.22275724
H       1.49185827     -1.50954317     -0.64637620
