13
b3lypvtz=-213766.51363991
C       2.43111289     -0.44771884     -0.00001585
N       1.03066403     -0.08424605      0.00000760
C      -0.04736905     -0.92051528      0.00000714
C      -1.16107781     -0.10523886      0.00000511
O      -2.48870211     -0.42418697     -0.00000517
C      -0.65685718      1.20652045     -0.00001634
N       0.67514285      1.20339560      0.00005059
H       2.92405161     -0.04963812     -0.88671446
H       2.92408881     -0.04955630      0.88662434
H       2.51491586     -1.53206513      0.00003125
H       0.05832452     -1.99176725      0.00000746
H      -2.59243345     -1.37988007     -0.00003677
H      -1.20719397      2.13233982     -0.00005191
