16
b3lypvtz=-181150.48665978
C      -2.54737628     -0.35796726      0.16056864
N      -1.52782908      0.60297328     -0.21876090
C      -0.18638235      0.32472392     -0.06504264
C       0.84943282      1.19505107      0.04396166
C       2.09483095      0.43790851      0.08397088
C       1.84743146     -0.88115444      0.00819640
C       0.35914590     -1.08577532     -0.09052201
H      -3.52678060      0.05361527     -0.07877229
H      -2.43129605     -1.27942527     -0.41080447
H      -2.53269523     -0.61650678      1.22785875
H      -1.77136183      1.56220274     -0.02989116
H       0.77410621      2.27212371      0.08301685
H       3.07235562      0.89159061      0.17147562
H       2.56503750     -1.68558558      0.03165140
H      -0.02761014     -1.68422793      0.74201676
H       0.06776409     -1.60643253     -1.00880851
