18
b3lypvtz=-181907.6628151
C      -3.27139354      0.38040254     -0.21784966
C      -2.24190168     -0.34789370      0.19490622
C      -0.86181931     -0.30596611     -0.38956152
C       0.20302536      0.12850507      0.64168824
C       1.60962327      0.13260705      0.09885047
C       2.29587300      1.26440934     -0.09630315
N       2.15079550     -1.13762372     -0.11670185
H      -3.17905642      1.07693583     -1.04333831
H      -4.24357660      0.30708957      0.25162465
H      -2.38192450     -1.03028290      1.02997867
H      -0.83710439      0.37490601     -1.24287953
H      -0.61297937     -1.30172334     -0.77479554
H       0.15745097     -0.54069518      1.50723170
H      -0.04164846      1.12863405      0.99722282
H       1.86799925      2.22011001      0.16411646
H       3.30269325      1.26065400     -0.49450623
H       1.49121219     -1.84959645     -0.38782026
H       2.97596248     -1.15789007     -0.69608220
