14
b3lypvtz=-203678.82702276
C      -1.82105339     -0.61409876     -0.31372367
N      -0.47042678     -0.11361216     -0.12470653
C      -0.34806060      1.23415609      0.39645440
C       0.58441046     -0.91747408     -0.44843755
O       0.46769010     -2.04863563     -0.89472558
C       1.91729612     -0.36090191     -0.23470358
C       3.05815174     -0.01183410     -0.10334874
H      -2.36294896      0.01197553     -1.02778383
H      -1.76922270     -1.62999630     -0.69125797
H      -2.36486750     -0.60432274      0.63455057
H      -0.84106480      1.94745635     -0.27016469
H       0.69801893      1.50921221      0.48799855
H      -0.81798771      1.30781411      1.38138076
H       4.07006513      0.29026138      0.00857591
