17
b3lypvtz=-217687.34623374
C      -2.44986657     -0.70966813     -0.50614596
C      -1.07154915     -1.20495557     -0.04812194
C      -0.13557330     -0.09586672      0.32843724
O      -0.60477142      0.58813210      1.41711769
C       1.00075814      0.18802841     -0.32196258
C       1.98674488      1.25357110      0.03011750
O       3.28477699      0.73118140      0.33194393
H      -3.10103323     -1.55339595     -0.73838183
H      -2.36419140     -0.09242494     -1.40183517
H      -2.92870344     -0.11509535      0.27093568
H      -1.19553723     -1.85427981      0.82411956
H      -0.60574571     -1.80249467     -0.83174445
H      -0.01307636      1.32059986      1.62225682
H       1.25342205     -0.43031765     -1.17364691
H       1.63487516      1.87906114      0.86455522
H       2.14587376      1.93181200     -0.81073573
H       3.16369683     -0.03398722      0.90359094
