14
b3lypvtz=-201308.25763211
C      -2.41482450     -0.28233500     -0.53428493
C      -1.51734987      0.34031512      0.52875278
N      -0.10093549      0.16767192      0.23857037
C       0.82458570      1.08474723     -0.10298941
N       1.99719361      0.51194635     -0.29472026
C       1.72726258     -0.79636484     -0.05145167
N       0.47346627     -1.05704223      0.27460950
H      -3.46202395     -0.14754534     -0.26085787
H      -2.21450430     -1.34875165     -0.62259065
H      -2.25102673      0.18220978     -1.50708410
H      -1.69295586      1.41287975      0.61201079
H      -1.71173837     -0.10595089      1.50437937
H       0.60351757      2.13574181     -0.19363538
H       2.46924834     -1.57522901     -0.11174553
