12
b3lypvtz=-254524.78650407
C      -1.66108158      0.05409954     -1.70615280
C      -0.97755956      0.10955317     -0.56411033
O      -1.48472797      0.38821906      0.66302033
O       0.35618500     -0.12261050     -0.54424587
C       1.07797833     -0.07176815      0.62228324
C       2.37957102     -0.30931397      0.57607330
F       3.11449503     -0.26640797      1.70625529
H      -1.15438016     -0.17748879     -2.62760959
H      -2.72364575      0.23921156     -1.72217053
H      -2.43102145      0.54170693      0.57772990
H       0.55608382      0.16056224      1.53592953
H       2.94800326     -0.54576312     -0.31100247
