13
b3lypvtz=-190452.43250758
C       2.10665658     -0.37403884     -0.02733192
C       1.47652021      0.85179758     -0.12293388
N       0.14365750      0.51971555     -0.05261257
C       0.05564270     -0.81621141      0.07437095
N       1.21178047     -1.42710571      0.09721618
C      -1.46129568     -0.82212341      0.11933026
C      -1.31867772      0.74304935     -0.02984859
H       3.16886892     -0.55427913     -0.04186729
H       1.85665478      1.85126958     -0.22745852
H      -1.90962424     -1.14932082      1.05620991
H      -1.96109553     -1.31321934     -0.71430894
H      -1.71105991      1.16298075     -0.95478599
H      -1.65802806      1.32748585      0.82402039
