11
b3lypvtz=-295531.83238043
C       2.62792113      0.10104104      0.20311606
N       1.59524334     -0.38356107     -0.33227419
C       0.49791613      0.51462320     -0.61448029
C      -0.79049312      0.00715862      0.01204874
F      -0.69602881     -0.07161295      1.35301976
F      -1.14336196     -1.20360659     -0.44247754
F      -1.80089954      0.85859521     -0.27084713
H       2.73496642      1.16004898      0.46768707
H       3.46845315     -0.55328624      0.42032427
H       0.32792988      0.54233355     -1.69246610
H       0.65570237      1.53937526     -0.25520964
