10
b3lypvtz=-248796.49646124
C       0.05426781     -0.52379305     -0.38604411
N      -0.39535204      0.59609305      0.01199972
C      -1.82834803      0.75730513      0.04441292
O      -2.62738990     -0.07674222     -0.27133546
C       1.54736440     -0.73167054     -0.43359972
O       2.02706841     -1.76897222     -0.80047282
O       2.26526328      0.32419854     -0.03766735
H      -0.56752680     -1.36093294     -0.70141120
H      -2.11205202      1.75590516      0.40020254
H       1.63670488      1.02860906      0.20581583
