18
b3lypvtz=-181911.94175201
C      -1.59904511     -1.39612653     -0.55640881
C      -1.17861750     -0.25650665      0.01018337
N      -2.04890188      0.64376311      0.64200322
C       0.23757336      0.20170900     -0.07332783
C       0.44725994      1.60763398     -0.57929111
C       1.21694900     -0.63720936      0.28454477
C       2.69678395     -0.41229347      0.23744795
H      -2.62639701     -1.72738602     -0.46558572
H      -0.93142290     -1.99334833     -1.15664254
H      -1.67896950      1.06455284      1.48213881
H      -2.97847009      0.28116415      0.79263662
H      -0.12305637      2.32929206      0.00754489
H       1.49277225      1.90544895     -0.55947966
H       0.08530965      1.69739378     -1.60735432
H       0.91327432     -1.61200126      0.65227970
H       3.13930270     -0.53185446      1.23081847
H       2.97515373      0.57070420     -0.13692856
H       3.17514445     -1.15938898     -0.40337425
