14
b3lypvtz=-203696.25066416
C      -2.70603801      0.33665096      0.00003444
C      -1.69365814     -0.52404843      0.00000523
C      -0.28761143     -0.11194890     -0.00000757
N       0.16917980      1.07286088      0.00004892
C       1.63225645      0.96949656     -0.00015946
C       1.92000880     -0.55112394      0.00024474
O       0.60234771     -1.15136397     -0.00014252
H      -3.73142725     -0.00636898      0.00007172
H      -2.52714328      1.40352774      0.00002780
H      -1.86291647     -1.59305696     -0.00000807
H       2.03963146      1.47245387     -0.87937614
H       2.03998682      1.47299239      0.87857227
H       2.45005605     -0.89577518     -0.88706964
H       2.44934349     -0.89540404      0.88814528
