15
b3lypvtz=-214480.68763148
C      -1.46292763      1.31785762     -0.29874542
C      -0.88475031      0.39015810      0.73710573
C       0.20917985     -0.59695398      0.46010453
N      -1.19258241     -1.03403612      0.62483370
C       0.78428094     -0.79182592     -0.88475081
N       2.00974242     -0.71504373     -1.21833590
O       2.83657747     -0.37380088     -0.12750593
H      -1.49356932      0.84800570     -1.28008518
H      -0.87134481      2.23241852     -0.37151323
H      -2.48365521      1.59607259     -0.02874382
H      -0.85566427      0.80495819      1.74079181
H       0.90154537     -0.76875947      1.27352327
H      -1.32446111     -1.46072743      1.53495281
H       0.11425257     -1.05233026     -1.69589696
H       3.71337645     -0.39599294     -0.52235557
