15
b3lypvtz=-193536.27803041352
C       2.89536731      0.39994643      0.06046889
O       1.63217649      0.66642128      0.17856680
C       0.70417101     -0.44105359     -0.02215446
C      -0.33529053     -0.64594554      1.10950259
C      -1.44440834     -0.47482069      0.06615897
C      -0.39835381     -0.18355296     -1.02410852
C      -1.34502128      0.88216949     -0.54630822
H       3.37096647      1.39112942      0.25049856
H       1.31254507     -1.31700319     -0.23318365
H      -0.32028813      0.09847089      1.90638193
H      -0.26782214     -1.63982076      1.54663463
H      -2.32891526     -1.08809416     -0.01537315
H      -0.37576697     -0.50338187     -2.05550957
H      -2.12018959      1.13569888     -1.25684470
H      -0.97917027      1.71983639      0.03526991
