16
b3lypvtz=-204450.51735926
C       2.26244968     -0.77200376     -0.04349240
C       1.28386957     -0.09318224     -0.62446757
C      -0.02690201      0.29272296      0.04625151
C      -0.28762530      1.80198346     -0.19117145
N      -0.06031148     -0.08051961      1.44976116
C      -1.13932537     -0.45224418     -0.69254986
O      -2.01556809     -1.07443970     -0.15217794
H       2.16810470     -1.10533526      0.98082667
H       3.17331038     -1.00654039     -0.57821500
H       1.38978201      0.23242426     -1.65541923
H      -0.28625250      2.05466580     -1.25335308
H      -1.24814179      2.09365724      0.23543068
H       0.50258480      2.38220864      0.28789204
H      -0.97308772     -0.45346471      1.68447954
H       0.14041730      0.70561663      2.05179019
H      -1.09685818     -0.36617113     -1.79611726
