15
b3lypvtz=-193618.71428885
C       3.19386710     -0.34242347     -0.00000253
C       1.98211774      0.22680386      0.00000020
C       0.73098831     -0.48896284     -0.00000118
C      -0.50874414      0.05699591     -0.00000100
O      -0.75946543      1.39721975     -0.00000090
C      -1.70906145     -0.76295563     -0.00000074
C      -2.95709998     -0.29178675     -0.00000155
H       4.09686687      0.25112908     -0.00000065
H       3.31225487     -1.41901270     -0.00000657
H       1.95062349      1.31470793      0.00000472
H       0.78112206     -1.57019861     -0.00000211
H       0.06903655      1.88619314     -0.00000612
H      -1.53063148     -1.83134058      0.00000039
H      -3.80451444     -0.96291627     -0.00000121
H      -3.15924206      0.76987618     -0.00000277
