18
b3lypvtz=-205205.28980189
C       2.15175056     -0.77975179      0.46808776
C       1.03792635     -0.17565630     -0.35234133
O      -0.00000449     -1.13745161     -0.68442265
C      -1.03792700     -0.17564527     -0.35234563
C      -2.15175376     -0.77972442      0.46809050
C       0.00000333      0.74702627      0.31474418
N       0.00000429      2.13818346     -0.11471880
H       2.89533002     -0.02012707      0.72242431
H       2.65491849     -1.56683183     -0.09596801
H       1.76466410     -1.21456314      1.39061013
H       1.43029836      0.28620235     -1.26554942
H      -1.43029403      0.28621962     -1.26555311
H      -1.76466538     -1.21449597      1.39063247
H      -2.65489605     -1.56683013     -0.09595213
H      -2.89535294     -0.02010645      0.72239099
H       0.00000319      0.61065493      1.40452446
H      -0.81068746      2.62293380      0.25527634
H       0.81069541      2.62292955      0.25528296
