13
b3lypvtz=-237057.03552517417
C      -0.34021385     -0.34745908     -0.71149281
C       0.58373108      0.13147289      0.37818188
N       0.06611411      0.73857184      1.36229033
C       2.08183936     -0.19090084      0.14396241
O       2.25486036     -0.80461644     -0.93105238
O       2.83642043      0.20367963      1.03855698
N      -1.74676411      0.06229251     -0.30097183
H      -0.10980271      0.10808486     -1.67070986
H      -0.31027952     -1.42777148     -0.82559141
H       0.83267913      0.98841189      1.99764789
H      -1.93142918     -0.32450086      0.62801358
H      -1.74953247      1.07313157     -0.14345368
H      -2.46762262     -0.21039649     -0.96538110
