15
b3lypvtz=-216913.49655556
C      -2.52665730      0.21901040     -0.15576513
O      -1.33133512     -0.48886355     -0.41152308
C      -0.28105939     -0.20658499      0.51826159
C       0.37288774      1.13999931      0.32677430
C       1.57982597      0.94650069     -0.19982534
O       1.95284201     -0.34906562     -0.35978916
C       0.89322407     -1.15150631      0.22012417
H      -2.89731533      0.02627954      0.85959524
H      -3.26668307     -0.13199417     -0.87284984
H      -2.40232355      1.30017174     -0.28181795
H      -0.67461145     -0.35460211      1.53134164
H      -0.07899249      2.09580852      0.52994519
H       2.31498981      1.66809921     -0.52419547
H       0.60644395     -1.91954351     -0.49447989
H       1.28963413     -1.61110016      1.12571574
