14
b3lypvtz=-227021.07701144
C      -2.69593833      0.97129967     -0.24546608
O      -1.43039310      0.60797984      0.32543321
C      -0.51758268      0.13473664     -0.55634294
O      -0.70322287      0.00699196     -1.74302375
N       0.64032086     -0.17277530      0.11005130
C       1.76837001     -0.68226125     -0.52348686
C       2.90771060     -0.99065699      0.08992204
H      -2.57052102      1.75860379     -0.98695637
H      -3.16590242      0.10975376     -0.71692914
H      -3.29855637      1.32502007      0.58598991
H       0.65444374     -0.01497358      1.10450247
H       1.62809993     -0.80686130     -1.58780941
H       3.04598073     -0.86487384      1.15629596
H       3.73719093     -1.38198344     -0.47770905
