17
b3lypvtz=-191964.84445226
N       2.43997666      0.48848835     -0.39272722
C       1.84702643     -0.69998799      0.01117423
C       0.61647787     -0.84703118      0.51866259
C      -0.32709163      0.26122686      0.81733207
C      -0.73012107      1.26107770     -0.26118846
C      -1.72552147      0.25593734      0.21284669
N      -2.20314652     -0.76061001     -0.69145754
H       2.03348292      1.33028131     -0.01752544
H       3.44585275      0.50160286     -0.38199357
H       2.45935405     -1.57596327     -0.16921668
H       0.29424344     -1.85722405      0.74263257
H      -0.27393517      0.66721325      1.82485407
H      -0.30998237      1.11032262     -1.24746235
H      -0.86845500      2.29965515      0.00879603
H      -2.51422391      0.63149493      0.85317603
H      -2.45194901     -1.60097470     -0.18052274
H      -1.47594698     -1.02470618     -1.34570429
