15
b3lypvtz=-191150.4581829
N       1.33055311      0.71052232     -0.71972523
C       0.70207193      1.81841777     -0.09378739
C       1.12699714      2.52744452      1.20043982
C      -0.05372664      3.37813248      0.68989466
C      -0.83332718      2.13967541      0.15450143
N      -0.99083251      2.64226725     -1.24989599
C       0.34625115      3.15759730     -0.80550411
H       0.86550581      0.49162692     -1.59416492
H       1.30115380     -0.11466070     -0.13267762
H       0.97010126      1.98235376      2.13341155
H       2.11204078      2.99659364      1.18927697
H      -0.48915098      4.27925875      1.11545436
H      -1.58146593      1.53552333      0.66635845
H      -1.67388542      3.40074607     -1.28603401
H       0.99681367      3.76950118     -1.42904796
