16
b3lypvtz=-204446.94201108
C      -3.33194917     -0.25034804     -0.53097745
C      -2.16459799     -0.40306837      0.09329617
C      -0.88175633     -0.21271551     -0.57101811
N       0.22154220     -0.36566659      0.03684320
C       1.46319228     -0.15153405     -0.68220327
C       2.39084586      0.71264958      0.17034062
O       2.64862344      0.11413232      1.42721296
H      -3.38004615      0.02704321     -1.57741908
H      -4.27394877     -0.39666295     -0.02104150
H      -2.11915352     -0.68170300      1.13954564
H      -0.92093395      0.06929224     -1.63275973
H       1.31112439      0.30433574     -1.67071002
H       1.94173733     -1.12578453     -0.82113988
H       1.94893137      1.71052637      0.29046687
H       3.35214714      0.83060479     -0.33195667
H       1.79414187     -0.18110120      1.76602026
