12
b3lypvtz=-247141.41883206
N       3.12009009      0.10805968     -0.05045436
C       1.85968162     -0.40422792      0.11451977
N       0.82893725      0.27941892     -0.19637087
O      -0.31990706     -0.55710205     -0.07899143
C      -1.48661636      0.16323862      0.01619161
N      -2.52853926     -0.72708454      0.03747516
O      -1.57932975      1.35524543      0.10886452
H       3.16486663      1.09986915     -0.23070895
H       3.82831872     -0.23501518      0.57625811
H       1.79730965     -1.42932284      0.47167304
H      -2.37636266     -1.65752859     -0.31075183
H      -3.43977187     -0.32579868     -0.09474477
