15
b3lypvtz=-193559.84790121214
C       2.02956473     -0.26646312      0.32650909
C       1.06201788     -0.58760928     -0.79891396
C       0.62409496      0.16980907      0.43100755
C      -0.18122123     -0.98450237     -0.07841811
C      -1.32812661      0.01563259     -0.39602762
C      -0.46482204      1.19795627      0.20674893
O      -2.55921445     -0.23641234      0.23549592
H       2.78284661      0.48074237      0.09669989
H       2.38930373     -1.06084768      0.97678694
H       1.11180123     -0.12166336     -1.77191075
H      -0.34881489     -1.95897768      0.37423966
H      -1.55500967      0.12843974     -1.45595212
H      -0.92993830      1.56848386      1.12221334
H      -0.23263859      2.04533561     -0.44193646
H      -2.39984335     -0.38992365      1.17345774
