13
b3lypvtz=-213778.17382643
N      -1.91304979     -0.94133126      0.00883799
C      -0.69382122     -0.58358596     -0.02441081
N       0.47246657     -1.30993948     -0.09055628
C       1.69561391     -0.53849829      0.13445482
C       1.25504495      0.90918468     -0.11870095
C      -0.26514813      0.88109738     -0.01954307
O      -0.99577238      1.82844979      0.05032349
H      -2.01752761     -1.95624860      0.00807125
H       0.46324879     -2.30464627      0.06189201
H       2.48370659     -0.86217142     -0.54532291
H       2.06359101     -0.66227879      1.15759774
H       1.51651253      1.23646243     -1.12713544
H       1.67593179      1.62829678      0.58050816
