21
b3lypvtz=-172607.82992348
C      -3.44400317      0.18219701     -0.25298752
C      -2.10783815     -0.47619630     -0.09490901
C      -1.01682550      0.10210582      0.39808185
C       0.31752684     -0.56798175      0.54840691
C       1.44453512      0.01379899     -0.33384690
C       2.70307833     -0.85173626     -0.22601802
C       1.76046002      1.47257755      0.00891381
H      -3.77022089      0.17081798     -1.29693839
H      -4.21442061     -0.34290645      0.31907878
H      -3.42190259      1.21956000      0.08300050
H      -2.04717324     -1.51529968     -0.41172524
H      -1.08356652      1.13829670      0.72040392
H       0.20800519     -1.63164182      0.32040299
H       0.64233537     -0.50615681      1.59497728
H       1.09525755     -0.02267768     -1.37125417
H       3.08835723     -0.85433978      0.79732369
H       3.49617317     -0.47780826     -0.87651061
H       2.50049470     -1.88718900     -0.50686920
H       2.56119002      1.85683399     -0.62592059
H       2.08983764      1.56452047      1.04787091
H       0.89472649      2.12165631     -0.12606199
