16
b3lypvtz=-204453.95869024
C      -0.90032688      0.92989689      0.91753265
C      -0.31227354     -0.11901702     -0.02682373
N      -1.29002213     -1.06646145     -0.56014003
C       0.94630896     -0.83594917      0.56434978
C       1.80719456     -0.02223314     -0.40023793
O       2.98393315      0.17869295     -0.49245370
C       0.58336174      0.50302575     -1.14861021
H      -1.66125858      1.52417092      0.40607732
H      -1.36905029      0.45074319      1.78037722
H      -0.13695956      1.61638004      1.29130718
H      -2.01886094     -0.57218126     -1.06511420
H      -1.75133468     -1.55935713      0.19800365
H       0.96634775     -1.89855011      0.31578814
H       1.15959965     -0.70512688      1.62546683
H       0.53940721      1.58177596     -1.30015860
H       0.45373359     -0.00600954     -2.10536437
