19
b3lypvtz=-192743.36460815
C       3.15462127     -0.34777155     -0.29030686
C       1.89334473      0.28146767      0.29945287
C       0.61699456     -0.45633422     -0.10710671
C      -0.67514555      0.17399884      0.44133537
N      -0.86401033      1.50857973     -0.11184472
C      -1.83807655     -0.79227821      0.25496131
N      -2.92500399     -0.60196033     -0.36185402
H       3.26703203     -1.38784241      0.02479395
H       3.12881021     -0.33619678     -1.38233008
H       4.04960969      0.19142210      0.02384460
H       1.96521211      0.29020181      1.39169044
H       1.81512084      1.32471312     -0.00916367
H       0.54449073     -0.49856249     -1.20012657
H       0.67230532     -1.49536674      0.23108479
H      -0.54705901      0.28937031      1.52525446
H      -0.99408462      1.47987979     -1.11687381
H      -1.66344827      1.97904103      0.29378521
H      -1.69228751     -1.77134795      0.72089947
H      -2.95085767      0.34568127     -0.75139001
