12
b3lypvtz=-221407.56396092
N      -3.02246565     -0.75081984      0.02284524
N      -2.27084119      0.23555566     -0.00150082
N      -0.93669679     -0.14048869      0.16806006
C      -0.16370994      0.86565472     -0.06607446
N       1.19898398      0.81164454      0.03146099
C       1.77647560     -0.32554023     -0.15528286
N       3.08269012     -0.50426015      0.08591398
H      -3.96728626     -0.36763701     -0.09924882
H      -0.58209869      1.83793097     -0.32305459
H       1.24296731     -1.20078908     -0.52731432
H       3.63100593      0.26356791      0.43665758
H       3.54070257     -1.36480378     -0.14873297
