15
b3lypvtz=-191252.57297529
C      -2.50545850     -0.59726478     -0.00002980
C      -1.10993427     -0.06999325     -0.00002197
C      -0.68331989      1.22864281      0.00002260
N       0.69698245      1.16564943     -0.00003496
H       1.32506553      1.95003347      0.00003234
C       1.04902336     -0.15237145     -0.00003219
C       2.46236138     -0.62551278     -0.00003300
N      -0.01941668     -0.91644083      0.00003087
H      -2.68701237     -1.21984794      0.87852600
H      -3.23347424      0.21413569     -0.00009412
H      -2.68694881     -1.21993337     -0.87853790
H      -1.21468584      2.16385142     -0.00005758
H       3.00643434     -0.27988303     -0.88258416
H       3.00643120     -0.27988869      0.88252211
H       2.46413937     -1.71255071     -0.00003425
