10
b3lypvtz=-279688.10543801
C      -1.71494295      0.54765459      0.77196353
C      -0.84521799     -0.01618531     -0.06554507
N       0.50533052      0.13055892      0.07132402
C       1.31495943     -0.41510623     -0.73871352
O       2.64076580     -0.27609250     -0.61092804
F      -1.30883696     -0.76598862     -1.09591546
F      -3.03676197      0.39118582      0.62031096
H      -1.41264136      1.15452770      1.60940829
H       1.05119378     -1.03111836     -1.59276061
H       2.80615169      0.28056397      0.16497694
