12
b3lypvtz=-252106.50126166
C      -1.60749671      1.34781316     -0.43209205
C      -0.86419498      0.27984400     -0.13906974
N      -1.29741537     -0.98501115      0.21066335
O       0.50965630      0.47790155     -0.05882420
N       1.24235710     -0.68429525     -0.26351129
C       2.48745686     -0.49045359     -0.24155103
F       3.07611183      0.68709847     -0.05339391
H      -1.13736284      2.29626167     -0.63179543
H      -2.68437682      1.28477382     -0.42618651
H      -2.24318855     -1.17944495     -0.07521311
H      -0.65045375     -1.71810192     -0.03800696
H       3.16890690     -1.31638580     -0.38206890
