14
b3lypvtz=-224603.31006675
N       2.06139757     -0.23314101     -1.10219436
N       1.59300852      1.03740037     -0.91445384
C       0.68740564      1.24052094     -0.03985362
C       0.06834717      0.19907368      0.87105600
C      -0.92955992     -0.69459663      0.14566038
N      -2.24034973     -0.48904721      0.43334265
O      -0.56920372     -1.54198034     -0.65850703
H       2.59770997     -0.27519391     -1.95370982
H       1.35991220     -0.96817654     -1.04243689
H       0.37990499      2.27217757      0.08683234
H       0.86026158     -0.45713062      1.24430895
H      -0.39410053      0.69536124      1.72449228
H      -2.54439899      0.23332193      1.05925699
H      -2.93033475     -1.01868947     -0.07259403
