12
b3lypvtz=-223822.0538817053
C      -1.57649128     -1.09590888      0.17199314
C      -0.41708182     -0.16978196      0.11506613
N      -0.26922997      0.98061459      0.71375877
N       0.91854875      1.60904026      0.46896609
C       1.58315007      0.78014691     -0.36060876
N       2.71584737      0.85112026     -0.90355022
O       0.66157786     -0.41886798     -0.58842137
H      -1.36859250     -1.96131459     -0.45176153
H      -2.48556072     -0.61555808     -0.19390850
H      -1.75897529     -1.43975157      1.19163032
H      -0.93574468      1.42827258      1.32090487
H       2.93255222      0.05198849     -1.48406893
