14
b3lypvtz=-180354.86539608
C      -3.28269833     -0.78011611      0.39180466
C      -2.39377569     -0.07349666      0.00722290
C      -1.29599906      0.77052869     -0.46105885
C       0.05179399      0.11562307     -0.30818101
C       1.08899171      0.66289928      0.32273386
C       2.41775784      0.03591019      0.46098199
N       2.97585193     -0.81791303     -0.29686972
H      -4.07317351     -1.40014651      0.73397648
H      -1.46304015      1.00190041     -1.52007142
H      -1.31055250      1.72550870      0.06959810
H       0.14555687     -0.87351031     -0.74560998
H       0.96714308      1.62326605      0.81521455
H       2.99037267      0.36404448      1.33124154
H       2.38280316     -1.03676726     -1.10118211
