14
b3lypvtz=-201304.91112409
C      -2.68803676     -0.01760002     -0.31874366
N      -1.44302817     -0.74059941     -0.13061731
C      -0.40306593     -0.07535445      0.16954290
N      -0.31249952      1.28204871      0.38038203
C       0.87495868     -0.86347208      0.43670518
C       2.07905197     -0.23404889     -0.09607371
N       3.00990564      0.30318734     -0.50718189
H      -3.46844038     -0.71737243     -0.61110799
H      -2.61527584      0.74336156     -1.10846256
H      -3.01599899      0.48615422      0.59912006
H      -1.07257032      1.85663261      0.05814400
H       0.59491547      1.71463566      0.31901810
H       0.74504649     -1.85369798      0.00514093
H       1.00304765     -0.98457782      1.51613291
