21
b3lypvtz=-172604.24528189
C      -2.82607925     -0.26479659      0.03722187
C      -1.73433249      0.45085228     -0.20546067
C      -0.48326240     -0.07359559     -0.84553014
C       0.80719969     -0.02138157      0.02090748
C       1.13027881      1.42458892      0.42912265
C       0.63983446     -0.88864923      1.27710795
C       1.96586243     -0.57300414     -0.82460567
H      -2.88194268     -1.31799387     -0.21416552
H      -3.70527157      0.17486503      0.49031054
H      -1.73751756      1.50395688      0.06030658
H      -0.64966332     -1.10828407     -1.15811275
H      -0.29019611      0.50179004     -1.75857807
H       2.07700957      1.46652381      0.97178939
H       0.36199299      1.84392434      1.08013655
H       1.22076214      2.07161781     -0.44678768
H      -0.18262512     -0.53532467      1.90003716
H       1.55034652     -0.87403026      1.87999364
H       0.43254138     -1.92797571      1.01196405
H       1.77038082     -1.60039972     -1.13958328
H       2.89831668     -0.57058504     -0.25611358
H       2.12127201      0.02828035     -1.72327850
