16
b3lypvtz=-181103.98608051
C      -1.37167004      0.01270140     -0.76965387
C      -0.53608030     -0.93710532      0.16251710
C      -0.55946330      0.24258946      1.16642526
C      -0.41703746      1.06708733     -0.13861988
N       0.86946819      0.67001271     -0.80600726
C       0.82320159     -0.79532436     -0.53131268
C       1.88656518      0.05055717      0.06066432
H      -2.41071240      0.11864806     -0.46212717
H      -1.29066887     -0.13251122     -1.84611856
H      -0.86767770     -1.93709650      0.43018586
H       0.19007870      0.30959031      1.95083542
H      -1.54623263      0.37187544      1.60501060
H      -0.59540240      2.13755748     -0.18678638
H       1.05075738     -1.46026769     -1.35621089
H       1.90823192      0.25715828      1.12102251
H       2.86664215      0.02452746     -0.39982436
