15
b3lypvtz=-214520.90462581
O      -2.76560636     -0.72617144     -0.20023648
C      -2.30673142      0.39283338     -0.12101207
N      -1.02469556      0.70016705      0.21203076
C      -0.00202560     -0.29805853      0.48222278
C       1.18644206     -0.16466856     -0.44090464
C       2.33102709      0.70125847     -0.06549324
N       2.46966016     -0.76444873     -0.06690236
H      -2.90896658      1.29834056     -0.31494949
H      -0.76377134      1.67233203      0.22330230
H       0.33360304     -0.22320052      1.52294429
H      -0.48198790     -1.26807052      0.35794113
H       0.94774396     -0.27367754     -1.49345980
H       2.90396389      1.21328578     -0.82799494
H       2.28672312      1.21338087      0.88982252
H       2.42959045     -1.12272232      0.88274623
