11
b3lypvtz=-213005.41108251
C       0.94303233      0.03746257     -0.06387200
C       0.39288785      1.05683178     -0.71716496
N       1.09741097      2.05195042     -1.36789144
C       0.43309900      2.97386079     -1.95759946
N      -0.96050196      3.08674806     -2.01668293
C      -1.57795176      2.15282805     -1.40592967
O      -1.02624968      1.12964608     -0.74931973
H       0.33386048     -0.70656931      0.42354126
H       2.01718560     -0.03566113     -0.02776546
H       0.97910836      3.75746204     -2.47000256
H      -2.66108119      2.11284064     -1.36901305
