15
b3lypvtz=-214488.92941621
C      -0.24821896      1.83516512      0.49946444
C      -0.46062569      0.37183162      0.30678840
C      -1.63452806     -0.26378534      0.32166151
N      -1.81630551     -1.64560740      0.25509394
O       0.68612013     -0.43060091      0.22213637
N       1.54085885     -0.01871807     -0.81810197
C       2.59244926     -0.72317675     -0.84891733
H       0.28613441      2.27066391     -0.34674627
H       0.34399544      2.03475638      1.39786428
H      -1.20525267      2.34601872      0.60103203
H      -2.53519818      0.31230734      0.48639275
H      -0.99944006     -2.14238240     -0.06863645
H      -2.64659289     -1.93065267     -0.24101525
H       3.31309197     -0.48430216     -1.61967065
H       2.78351196     -1.53151738     -0.14734579
