18
b3lypvtz=-205211.40122333
C      -2.10422265     -1.24253562     -0.09294157
C      -0.57654104     -1.25285754     -0.10178000
C       0.05792437      0.02752244      0.47866103
C      -0.25540051      1.23539138     -0.37370883
N      -0.95629457      2.24505454     -0.06504040
C       1.57169053     -0.12934121      0.65670029
O       2.15975492     -0.40375244     -0.61258501
H      -2.50021109     -2.17842193     -0.48928151
H      -2.50595736     -0.42949704     -0.69912998
H      -2.49453343     -1.12199492      0.92048170
H      -0.21259823     -2.10381016      0.48121499
H      -0.20618383     -1.40219205     -1.11723327
H      -0.35915135      0.20293116      1.47730166
H       0.18261163      1.21901492     -1.37338847
H      -1.31603202      2.15717680      0.88934442
H       1.98748973      0.78872155      1.08725796
H       1.76315774     -0.95003150      1.35923420
H       3.11536516     -0.42178038     -0.51607420
