19
b3lypvtz=-195160.6222787
C       1.94695627     -0.79026399     -0.00941776
C       0.90913727      0.31857338     -0.02694574
O       1.26039225      1.47701093     -0.04554040
C      -0.58365425     -0.06607238     -0.00746786
C      -1.43229183      1.15337240     -0.38637713
C      -0.86528484     -1.22317483     -0.98382077
C      -0.93381317     -0.50490131      1.43225805
H       1.68918357     -1.59393644      0.68024647
H       2.02276343     -1.23358856     -1.00511382
H       2.91209986     -0.36581516      0.25578596
H      -1.24023921      1.98985020      0.28305663
H      -2.49258226      0.89936108     -0.33382136
H      -1.21063085      1.48838081     -1.40023717
H      -1.93107868     -1.45812333     -0.97787312
H      -0.59192974     -0.95564241     -2.00645680
H      -0.32722891     -2.13233789     -0.71468678
H      -0.74164560      0.29927246      2.14395192
H      -1.99412166     -0.75863822      1.48893990
H      -0.36704965     -1.38234074      1.74608378
