20
b3lypvtz=-182663.05189247
C       2.56646761     -1.25234098      0.10703832
C       1.49877376     -0.61482325     -0.35242044
C       0.73792979      0.44380318      0.40469806
C       0.86425146      1.80955841     -0.29978610
N      -0.64550066      0.00908122      0.67034634
C      -1.56473377     -0.08306404     -0.46104896
C      -2.92393539     -0.59079860      0.00529778
H       2.95883052     -1.06189653      1.09958549
H       3.08834814     -1.99032499     -0.48840182
H       1.14636655     -0.83578505     -1.35585562
H       1.20313722      0.53260774      1.38966278
H       0.48923074      1.77341237     -1.32387384
H       1.90857249      2.12245430     -0.34154189
H       0.30011761      2.57386632      0.23988196
H      -1.04672512      0.61224915      1.37917013
H      -1.14984359     -0.78852870     -1.18395773
H      -1.70012160      0.86944645     -0.99571634
H      -3.37777265      0.10201310      0.71864919
H      -2.82305409     -1.55914788      0.49591796
H      -3.61064603     -0.69345623     -0.83647226
