18
b3lypvtz=-181906.23153502
C      -3.73087509     -0.32764189     -0.29191943
C      -2.60606503      0.35596745     -0.06934982
C      -1.30358241     -0.24640158      0.15022074
C      -0.18087772      0.44381330      0.37573144
C       1.17456697     -0.14760798      0.60086043
C       2.19461205      0.27238725     -0.46453772
N       3.52784361     -0.23280040     -0.12340229
H      -4.67665689      0.17193125     -0.45005398
H      -3.73773063     -1.41081384     -0.32197640
H      -2.64281840      1.44162375     -0.04669760
H      -1.26253493     -1.33284879      0.12994631
H      -0.23686326      1.53038555      0.39344505
H       1.10409187     -1.23905743      0.62733163
H       1.56777864      0.16847112      1.57248261
H       1.83276644     -0.05292718     -1.44974215
H       2.25020989      1.36355407     -0.49470573
H       4.21412195      0.10113707     -0.78958334
H       3.54433894     -1.24527073     -0.17807977
