19
b3lypvtz=-195131.7718592
C       1.34471679      1.46802902     -0.02261225
C       1.31832111     -0.01903509      0.34569170
C       2.56691473     -0.73261595     -0.18019266
C       0.04617777     -0.72165173     -0.15751538
C      -1.22954231     -0.20886540      0.46016331
C      -2.14414220      0.70639219     -0.22796495
O      -2.45464573     -0.68489534     -0.11198113
H       1.32503787      1.59839021     -1.10810402
H       2.25235737      1.94561383      0.35082807
H       0.49194452      2.00643574      0.39227509
H       1.32777626     -0.09418732      1.43949563
H       3.47723214     -0.26515092      0.19959076
H       2.58091821     -1.78314401      0.11593835
H       2.60587585     -0.69451863     -1.27203548
H       0.11886065     -1.79108668      0.06393386
H      -0.02387454     -0.63386752     -1.24602640
H      -1.24207949     -0.19535855      1.54900423
H      -1.90160580      1.04284614     -1.23146746
H      -2.78164219      1.37334004      0.34443772
