12
b3lypvtz=-228806.00247149
C      -3.15118040      0.26431354     -0.00001178
C      -2.02488705     -0.44971102      0.00001049
N      -0.79545935      0.21207183      0.00000114
N       0.18356884     -0.57085028      0.00002642
C       1.44055657      0.05056736      0.00000644
C       1.74981225      1.34185462      0.00000840
F       2.40015101     -0.88691767     -0.00000349
H      -3.11325292      1.34498746     -0.00005361
H      -4.11852427     -0.21630079      0.00001272
H      -2.00195742     -1.53554996      0.00003746
H       2.78084383      1.65881859      0.00000293
H       0.95833591      2.07349232      0.00001690
