15
b3lypvtz=-216923.89660893
C      -2.29626772      0.00470496     -0.33594200
C      -0.97368513     -0.04668936      0.41268206
C      -0.17666779      1.22234365      0.28545823
C       1.09206697      1.19733673     -0.11678930
O       1.79133354      0.04882917     -0.33461729
C       1.12433571     -1.09008096      0.20810667
O      -0.22047564     -1.14037404     -0.14636699
H      -2.81529794     -0.94997775     -0.24889122
H      -2.93430366      0.78550863      0.08041893
H      -2.12481465      0.21799959     -1.39103449
H      -1.17590495     -0.27227365      1.46995845
H      -0.66135945      2.17032713      0.47152136
H       1.68627647      2.08005734     -0.30886791
H       1.61372713     -1.96457994     -0.21125008
H       1.24242311     -1.05591249      1.29969959
