19
b3lypvtz=-171832.52233999
C       2.12464349      0.14174307     -0.00000025
C       0.83179726     -0.65459739     -0.00000043
C      -0.31518346     -0.38482050      1.02535390
C      -0.66245322      1.09522510      0.78139930
C      -0.66245342      1.09522584     -0.78139800
C      -0.31518385     -0.38481957     -1.02535411
C      -1.24198517     -1.09342107     -0.00000026
H       2.72551395     -0.09912646     -0.88024263
H       2.72551249     -0.09912445      0.88024370
H       1.96103019      1.21938748     -0.00000163
H       1.06439012     -1.72161127     -0.00000091
H      -0.24322663     -0.71649013      2.05982334
H      -1.63450477      1.35748634      1.20016992
H       0.07407331      1.77822364      1.20500078
H       0.07407314      1.77822468     -1.20499896
H      -1.63450499      1.35748766     -1.20016820
H      -0.24322742     -0.71648821     -2.05982390
H      -2.30037256     -0.82725183      0.00000010
H      -1.12437546     -2.17607392     -0.00000075
