15
b3lypvtz=-193645.57835221
C       2.22793252     -0.06974186     -0.01764122
C       0.73716847     -0.08472758      0.01406757
C      -0.09441779     -1.07780045      0.35085495
C      -1.55215961     -0.71303520      0.25950929
C      -1.54083136      0.74935073     -0.21527707
C      -0.06160011      1.11093116     -0.35889336
O       0.38079099      2.18111859     -0.71365143
H       2.64829643     -1.02783531      0.28593273
H       2.58780121      0.16978307     -1.02033637
H       2.61751816      0.70941881      0.64078183
H       0.22547358     -2.06428554      0.66445468
H      -2.07794603     -1.37460454     -0.43426896
H      -2.04678897     -0.83545795      1.22690553
H      -2.01104310      1.43376780      0.49162568
H      -2.04019444      0.89311829     -1.17406385
