12
b3lypvtz=-202940.63642384746
C      -1.48610041     -0.30324604     -0.41691339
C      -0.27814753     -0.60956027      0.46868648
C       0.93248812      0.27054852      0.15343632
C       2.04697078     -0.26724586     -0.31585923
O       3.00280666     -0.77421837     -0.71992579
C       0.88689833      1.67302194      0.34420316
N       0.79756507      2.81146743      0.51850404
H      -1.26382271     -0.49203399     -1.46768539
H      -2.33123405     -0.93000772     -0.12864665
H      -1.78932932      0.73929702     -0.31858275
H      -0.53280953     -0.46306513      1.52056242
H       0.01471457     -1.65495753      0.36222079
