16
b3lypvtz=-225325.27183995
N       1.98490370     -1.35220084     -0.02901001
C       1.47638203      0.02119767     -0.05614797
C      -0.03341320      0.09150607     -0.00808615
C      -0.85710325     -1.18288893      0.00103721
N      -2.30517239     -1.04030865     -0.00154093
N      -0.67113307      1.19354261      0.01884117
O       0.20533948      2.30736354     -0.00964283
H       2.94631900     -1.37163849     -0.34278465
H       1.98175630     -1.72356330      0.91320940
H       1.87108521      0.66673043      0.73805187
H       1.79466241      0.48885257     -0.99138387
H      -0.56691411     -1.77519780      0.87427307
H      -0.54971900     -1.78741412     -0.85475621
H      -2.59081965     -0.53028289     -0.83024425
H      -2.58757102     -0.45183100      0.77470702
H      -0.40799144      3.04731813      0.02103413
