10
b3lypvtz=-223038.91543807
C      -0.30579697      0.84123536     -0.02998983
C      -1.47968532      0.21456171     -0.10352462
N      -1.55342065     -1.19157720     -0.09411318
N      -0.59601021     -1.92309343     -0.02173651
O       0.78663873     -1.27992079      0.06588645
C       0.93072960      0.07824289      0.06272415
N       2.05691147      0.65632007      0.13505577
H      -0.22026993      1.91783634     -0.03529716
H      -2.43667982      0.70606195     -0.17365045
H       2.81758309     -0.01966690      0.19464538
