13
b3lypvtz=-211328.95014557
C       2.27099238     -0.71856629      0.26921010
N       1.93542536      0.35275891     -0.31908384
C       0.75115419      1.00726086     -0.05912393
C      -0.49840864      0.46524387      0.01392584
N      -1.64395798      1.21536559      0.21458640
N      -0.62942440     -0.92186021     -0.15079710
N      -1.80916228     -1.33817341     -0.05383873
H       3.17529099     -1.23032523     -0.04914505
H       1.69825612     -1.15227363      1.09092524
H       0.84037051      2.08782245     -0.01950723
H      -2.48667578      0.70716613     -0.01357883
H      -1.62507979      2.16569209     -0.11447820
H      -1.77943968     -2.34859214     -0.22760168
