21
b3lypvtz=-193508.04650469
C       1.68897156      1.15503170     -0.03005333
C       0.83621738     -0.03132305     -0.47445836
N       1.46455111     -1.26677674      0.02990727
C      -0.63815625      0.03244323      0.02633743
C      -1.32718121      1.30813789     -0.47221740
C      -1.41229263     -1.18735590     -0.51744655
N      -0.61216428      0.06447097      1.49592497
H       1.31391031      2.09309808     -0.43528056
H       2.71409033      1.03390697     -0.38877395
H       1.70299165      1.23059728      1.05614045
H       0.78895767     -0.02332571     -1.57277322
H       2.47178729     -1.20520840     -0.04886110
H       1.17829927     -2.07282214     -0.51087277
H      -1.28119719      1.38468931     -1.56075764
H      -2.38178441      1.30097720     -0.18754116
H      -0.87476981      2.19645021     -0.03627784
H      -1.00659775     -2.12047474     -0.12516460
H      -1.39039649     -1.23084958     -1.61019163
H      -2.45900335     -1.13302285     -0.21075023
H      -0.07702885     -0.73154888      1.82732921
H      -1.55127335     -0.01761385      1.86811201
