15
b3lypvtz=-191201.47838660688
C      -0.23301470      1.82826491     -0.73721512
C      -0.06798935      0.53731633     -0.47327825
C      -1.01419037     -0.68051948     -0.28409145
C       0.27011854     -1.42622956      0.04494467
C       1.06197276     -0.34509057     -0.16209621
N       2.40409271     -0.06861920     -0.08854847
N      -2.03316373     -0.66673901      0.75309511
H       0.59777154      2.52361316     -0.75607522
H      -1.21682766      2.24063407     -0.92342926
H      -1.49523509     -0.98966500     -1.21711740
H       0.45406779     -2.45132105      0.33206497
H       2.71908385      0.72484712     -0.62244857
H       3.03146044     -0.85488229     -0.13991718
H      -1.65564680     -0.27972808      1.61130399
H      -2.82249996     -0.09188134      0.48132270
