14
b3lypvtz=-231987.58758985
C      -3.50315377     -0.31742782     -0.00011405
O      -2.33109384      0.48735592      0.00004861
C      -1.15506309     -0.18656346      0.00005219
C       0.02339740      0.44607599     -0.00001539
C       1.28813368     -0.25198869      0.00003014
C       2.46921603      0.35808773     -0.00002881
F       3.62432056     -0.34192491      0.00001298
H      -3.54970183     -0.94815212      0.89221925
H      -3.54964674     -0.94787165     -0.89264785
H      -4.34923144      0.36485953     -0.00003216
H      -1.22579482     -1.27102755      0.00013820
H       0.02569093      1.53033046     -0.00010241
H       1.28096735     -1.33691041      0.00011576
H       2.63624159      1.42668797     -0.00011445
