18
b3lypvtz=-181918.74423081
C      -2.72820716      0.30447933      0.07378031
C      -1.54217581     -0.56250780     -0.35049702
C      -0.23086321     -0.23849010      0.37828668
C       0.38526267      1.10305259      0.03419698
N       1.63365464      1.12840071     -0.18393642
C       2.16636728     -0.23537595     -0.01847793
C       0.94705779     -1.18069876      0.04489026
H      -2.55560408      1.36150273     -0.13502465
H      -2.92401933      0.20687092      1.14392502
H      -3.63567281      0.01148476     -0.45606655
H      -1.78455387     -1.61346877     -0.16995831
H      -1.37947430     -0.46909125     -1.42865199
H      -0.43455855     -0.24887403      1.45754500
H      -0.19434345      2.02187987     -0.01001071
H       2.84961811     -0.46197550     -0.83766883
H       2.75888669     -0.25575287      0.90089982
H       0.77880598     -1.64436321     -0.92958630
H       1.06649941     -1.98201567      0.77273966
