16
b3lypvtz=-202034.60548945
C       3.06480216     -0.30104179      0.07045189
N       1.91339743      0.25223881      0.07303293
N       0.82290100     -0.48521897     -0.14972363
C      -0.46444537      0.05626654     -0.03805801
N      -0.49567895      1.44326857     -0.10413019
C      -1.54009149     -0.74697183      0.04100684
C      -2.95798730     -0.25815789      0.03911925
H       3.21321283     -1.36970493     -0.09466400
H       3.92730271      0.32776792      0.23514093
H       0.90235923     -1.49109799     -0.23469078
H       0.40268853      1.86339622      0.08409961
H      -1.24286025      1.86445196      0.42193944
H      -1.36736217     -1.81411199      0.10199703
H      -3.36992539     -0.12336044      1.04679485
H      -3.61386174     -0.96578045     -0.47193797
H      -3.05513124      0.69707726     -0.48249120
