16
b3lypvtz=-181154.56906699
C       0.80947367      1.43156518      0.10254116
C       1.61723428      0.36928604     -0.04737753
C       1.20124933     -1.05342982     -0.27919469
C      -0.11730494     -1.46507306      0.39641373
N      -1.29923695     -0.83590338     -0.16921211
C      -1.53653952      0.51313235     -0.10320226
C      -0.63703831      1.51048009      0.04704019
H       1.29955930      2.38589925      0.26673507
H       2.68511260      0.54139736      0.02458139
H       1.12066302     -1.26738370     -1.34950452
H       1.98579774     -1.71617462      0.09958680
H      -0.25092772     -2.54191574      0.28715934
H      -0.04104353     -1.25103875      1.46819255
H      -2.12099910     -1.41328728     -0.18323508
H      -2.58277536      0.77444036     -0.20941091
H      -1.05658050      2.50670970      0.08894587
