18
b3lypvtz=-210212.65225107
C       1.92797754     -1.02907357      0.25114208
C       0.63390973     -1.12777243     -0.56196875
C      -0.44383392     -0.12048269     -0.18733895
C      -0.16627868      1.32058598     -0.50911234
F       0.83577399      1.85732479      0.31405951
C      -1.29270448     -0.39503455      1.02785550
C      -1.88823462     -0.54172965     -0.34531539
H       2.62572989     -1.81406089     -0.04593748
H       2.41891719     -0.06737191      0.11220863
H       1.72911514     -1.14418428      1.31814822
H       0.21746122     -2.13213670     -0.44724248
H       0.86190448     -1.01696389     -1.62756380
H       0.17740432      1.43664398     -1.54046236
H      -1.05679735      1.93417052     -0.35972338
H      -1.60520388      0.44320200      1.63535294
H      -1.08372726     -1.29508538      1.58985352
H      -2.07623610     -1.53882031     -0.71892697
H      -2.61042823      0.19549697     -0.67001548
