16
b3lypvtz=-204443.51135403
C      -1.24387520      1.02865943      0.14137455
C      -1.60026317     -0.22422096     -0.16281942
N      -0.74810063     -1.31656964     -0.29222364
C       0.47592395     -1.30650924      0.50223077
C       1.55778075     -0.40587784     -0.09381079
O       1.09731641      0.85058886     -0.55541568
C       0.17338580      1.53125181      0.28651301
H      -2.02937251      1.77018084      0.20272626
H      -2.64238036     -0.44971643     -0.35558253
H      -1.23153612     -2.19891834     -0.27470764
H       0.25496876     -0.99757841      1.53205827
H       0.87351548     -2.32188173      0.54953227
H       2.35080282     -0.27733877      0.65815088
H       1.99751947     -0.88308157     -0.97063583
H       0.21023302      2.57408947     -0.03290771
H       0.52079753      1.51432753      1.32952222
