16
b3lypvtz=-227754.37650031
C       3.29058841      0.11789499      0.23036948
N       1.86123593      0.34035133      0.13968367
C       1.14266887     -0.60360519     -0.27444266
O      -0.19444894     -0.53455036     -0.41059545
C      -0.82819569      0.70259584     -0.02708550
C      -2.31152975      0.51711666     -0.25299709
O      -2.86882966     -0.49106324      0.57578802
H       3.81393306      0.85041417     -0.38719890
H       3.61989984      0.27432701      1.25937712
H       3.60301879     -0.88685360     -0.08424824
H       1.50004777     -1.59120868     -0.57860976
H      -0.42891569      1.52005801     -0.63075893
H      -0.60679948      0.90654241      1.02110391
H      -2.82569151      1.44571722     -0.00154711
H      -2.49772484      0.30524422     -1.31285778
H      -2.38393511     -1.30525979      0.40454523
