12
b3lypvtz=-249564.20103954
C      -2.35923544      0.79472514      0.07626088
N      -1.04256665      0.58592061      0.64638243
C      -0.16790082      0.07644940     -0.08015745
O       1.09155643     -0.12566417      0.46335911
C       2.02734024     -0.68029087     -0.33468157
O       3.15305047     -0.78470727      0.38146345
O       1.89010629     -1.02209812     -1.47788729
H      -2.44929118      0.47466608     -0.96900413
H      -2.61057080      1.85431040      0.14295453
H      -3.09385516      0.25373461      0.67471742
H      -0.25331473     -0.24418518     -1.11730433
H       3.81448137     -1.18276063     -0.20020307
