16
b3lypvtz=-227756.61552941
C      -2.56985116     -0.25115259      0.20565204
C      -1.17199118     -0.01605030     -0.36000297
O      -0.77861592      1.35062452     -0.20260483
C      -0.13698027     -0.86690981      0.36195766
O       1.08701879     -1.03497183     -0.35878503
C       2.13293132     -0.18247868     -0.15033486
N       2.19273736      0.92307748      0.44347521
H      -2.89111419     -1.28284610      0.05157318
H      -2.59371278     -0.03174847      1.27442565
H      -3.29287450      0.40080871     -0.28691823
H      -1.14836381     -0.29076146     -1.42051590
H      -1.27815552      1.89970376     -0.81368009
H      -0.52623802     -1.87709863      0.48395166
H       0.05736799     -0.44728753      1.35284376
H       3.01717284     -0.61833606     -0.60874549
H       1.28540905      1.25549699      0.76342825
