19
b3lypvtz=-192731.69848539
C      -3.09074394     -0.90470238      0.12891279
C      -1.70097370     -0.47752971     -0.34209773
C      -1.26275777      0.87044343      0.23281564
C       0.13864627      1.31915221     -0.21648457
C       1.24515809      0.46912172      0.32676764
N       2.06143583     -0.13693695     -0.43473155
N       3.10580397     -0.82896789      0.14004403
H      -3.84858192     -0.17123601     -0.15608684
H      -3.38051171     -1.86425676     -0.30254080
H      -3.12554546     -1.00664257      1.21613450
H      -1.68504023     -0.42056767     -1.43479813
H      -0.97042885     -1.24477719     -0.07242916
H      -1.29603240      0.82794617      1.32725243
H      -1.98491398      1.63826890     -0.05992521
H       0.29489598      2.35156770      0.11614865
H       0.20919088      1.31956628     -1.30566850
H       1.33208871      0.39532600      1.41989572
H       3.39258453     -1.57902458     -0.47027217
H       2.91906069     -1.16896470      1.08097028
