9
b3lypvtz=-233097.11305071
N      -1.16201486     -1.40599530     -0.02610661
C      -0.64272247     -0.25810333      0.01197952
C      -1.11679225      0.90599901     -0.70593334
N      -1.52416887      1.81380232     -1.28542097
N       0.42536100      0.00885514      0.93798821
N       1.57269440      0.16284380      0.56128350
O       1.73164679      0.01930072     -0.83044824
H      -1.95730383     -1.43743348     -0.66143416
H       2.67330009      0.19073113     -0.96290792
