17
b3lypvtz=-215244.68323346
C       1.42989093      1.56010896     -0.24371920
C       0.68373965      0.52397741      0.14019990
C      -0.79215407      0.62556654      0.43577149
N      -1.55026146     -0.32200122     -0.38547031
C      -2.97036841     -0.36975234     -0.06027381
N       1.15786798     -0.77416416      0.37827209
O       2.41152606     -1.05122732     -0.23575894
H       0.98257911      2.53734179     -0.34640791
H       2.48189477      1.45177702     -0.45610410
H      -1.11035556      1.66819307      0.30515752
H      -0.97282114      0.36159090      1.48251946
H      -1.43043885     -0.07869430     -1.36224064
H      -3.09986628     -0.75851249      0.95150364
H      -3.47274195      0.60812957     -0.10926004
H      -3.47834556     -1.04926104     -0.74461995
H       0.49400165     -1.45871374      0.03037868
H       2.99386413     -1.22065666      0.51267713
