19
b3lypvtz=-171841.23365869
C      -2.68093603     -0.48476375      0.00923784
C      -1.37017098     -0.74786008      0.00802343
C      -0.28614746      0.23914309     -0.00054687
C      -0.73944922      1.67963151     -0.00990890
C       1.01671807     -0.13003836     -0.00013018
C       2.17500843      0.83387713     -0.01189883
C       1.50339342     -1.55780182      0.01244954
H      -3.08177787      0.51927218      0.00445528
H      -3.40307514     -1.28997453      0.01515882
H      -1.08580382     -1.79079301      0.01261308
H      -1.35695499      1.89350155      0.86618074
H       0.07919712      2.39064643     -0.01471402
H      -1.35870254      1.88236375     -0.88743062
H       2.80125419      0.68187062      0.87317940
H       1.89255648      1.88081815     -0.04124998
H       2.81889169      0.63802401     -0.87527774
H       2.15342968     -1.72384121      0.87716074
H       2.11786534     -1.75263505     -0.87215035
H       0.72041364     -2.30764362      0.04118561
