18
b3lypvtz=-205209.64275353
C       3.25273519     -0.78144568     -0.11863531
N       2.25488306      0.25781439     -0.27356760
C       1.16326903      0.14409506      0.34982017
C       0.07361319      1.17076021      0.23978326
C      -1.21217000      0.64507224     -0.42605965
C      -1.97981940     -0.37693838      0.40753142
O      -3.16358984     -0.83424950     -0.23727560
H       3.48638870     -1.20235820     -1.09874080
H       4.17513791     -0.33857164      0.26273424
H       2.94405221     -1.59417237      0.55294191
H       0.96938079     -0.72261115      1.00022788
H      -0.16914338      1.53818939      1.24375396
H       0.46758827      2.01105168     -0.33119884
H      -0.97469963      0.20707146     -1.39806643
H      -1.87057739      1.49861901     -0.61885547
H      -1.38185630     -1.27385590      0.57208204
H      -2.21046538      0.04493021      1.39494373
H      -3.74507703     -0.08045183     -0.37747189
