13
b3lypvtz=-234650.38137793663
C      -0.76319281      0.00162211      0.00341566
C       0.59263252     -0.05364640     -0.20322757
N       1.41703476      0.58085444      0.68019532
N       2.67205916      0.50387238      0.60495912
O       1.07640385     -0.82697649     -1.25672293
N      -1.30538423      0.54738824      1.14306712
N      -1.65267117     -0.50881719     -0.90754655
H       2.94515320     -0.12719782     -0.17442213
H       1.48761044     -0.25020513     -1.91300933
H      -0.60696405      1.01487604      1.70601400
H      -2.13868554      1.09756222      0.99334773
H      -1.22677871     -1.08030974     -1.62028744
H      -2.49721742     -0.89902268     -0.51902622
