14
b3lypvtz=-203685.14980822
C      -2.15880076     -1.35501652      0.02753377
O      -0.75065098     -1.27274112     -0.08397161
C      -0.24804488      0.01344132      0.20352305
C       1.22125535      0.04844341     -0.13241946
C       2.17154823      0.29223815      0.77014771
C       1.56361797     -0.18197225     -1.50522301
N       1.82080286     -0.35004018     -2.61600571
H      -2.65567780     -0.66271466     -0.66225468
H      -2.49524377     -1.13614994      1.04833967
H      -2.43962907     -2.37441422     -0.22739734
H      -0.77822301      0.77068344     -0.39157739
H      -0.38244930      0.26491703      1.26314302
H       3.21673499      0.33281755      0.49881536
H       1.91466017      0.46070799      1.80714664
