15
b3lypvtz=-212081.77592830668
C      -1.59019572      1.24139347     -0.05871095
C      -0.84791543     -0.05665761      0.09984403
N       0.45722160     -0.06918092     -0.01733477
C       1.40163387     -1.04424893      0.06652555
N       2.68777560     -0.68340258     -0.11386090
N       2.89984081      0.55785832     -0.34969415
N      -1.48058152     -1.29296488      0.37338152
H      -1.28086596      1.98777087      0.67960416
H      -2.65784176      1.07493683      0.06897319
H      -1.44044223      1.68571217     -1.04763076
H       0.94915572      0.81787190     -0.21709808
H       1.12437355     -2.06074411      0.26917331
H       3.90553662      0.67429034     -0.46183587
H      -2.13982970     -1.55479188     -0.35243306
H      -1.98786547     -1.27784297      1.25227235
