17
b3lypvtz=-217661.59923137
C       3.01456107      0.06578757      0.21728303
O       1.74159672      0.32856332     -0.33308655
C       0.73455867     -0.53306838      0.15727797
C      -0.57301292     -0.14915644     -0.50052983
C      -1.30242668      1.10842455      0.00722902
C      -2.44546432      0.13923071      0.35285825
O      -1.65374548     -1.00562041     -0.05267359
H       3.01619801      0.19306735      1.30712602
H       3.71239961      0.77588194     -0.22282279
H       3.34969920     -0.95324151     -0.01288481
H       0.96315634     -1.58218272     -0.07734447
H       0.64312206     -0.44884033      1.24940283
H      -0.45759260     -0.19060501     -1.58773385
H      -1.52496634      1.86346906     -0.74233469
H      -0.82474943      1.58238041      0.86257173
H      -3.34372794      0.24048352     -0.26139829
H      -2.73558197      0.07712236      1.40358600
