15
b3lypvtz=-191223.82451353
C       2.94634652      0.09439604     -0.32845078
C       2.00579822     -0.69727219      0.19549714
N       0.66852835     -0.39875047      0.40297936
C       0.09091735      0.79210427     -0.17722780
C      -1.35041468      0.99956745      0.30756549
C      -2.23209226     -0.10547687     -0.06197574
N      -2.89634112     -0.99894370     -0.35254039
H       3.96797301     -0.25001721     -0.37154104
H       2.74334114      1.08473451     -0.70946239
H       2.27268568     -1.68636624      0.54958507
H       0.06019271     -1.20376100      0.39681352
H       0.11456997      0.77724121     -1.27528178
H       0.67671044      1.65514280      0.14437386
H      -1.36493781      1.10144383      1.39449507
H      -1.75150952      1.92141657     -0.11711660
