12
b3lypvtz=-223812.09155385
C       3.04607304     -0.64446963     -0.00033668
N       2.21731568      0.31646218     -0.00008045
N       0.88042651     -0.11600544     -0.00000083
C       0.08586010      0.87227824      0.00028004
O      -1.26010961      0.75527921      0.00013123
C      -1.85597704     -0.50210857      0.00007769
N      -3.09805830     -0.64871763     -0.00012636
H       4.10119483     -0.39847894      0.00003216
H       2.73504320     -1.68807241     -0.00019240
H       0.40166956      1.91114987      0.00015989
H      -1.15227599     -1.32437590      0.00034537
H      -3.58563898      0.24812501     -0.00031265
