17
b3lypvtz=-191983.30146371
C       3.26982968     -0.19356031     -0.21873793
C       2.14656927      0.06566427      0.43656662
C       0.85528964      0.46176140     -0.21819832
N      -0.20802139     -0.46150765      0.15118866
C      -1.55978722     -0.21850348      0.00870701
C      -1.99238986      1.22933659      0.03255756
N      -2.34357199     -1.22343926     -0.09541333
H       3.32045933     -0.13890451     -1.30014083
H       4.17967966     -0.46555980      0.29954891
H       2.11680693     -0.01011056      1.51914881
H       1.00000006      0.52303994     -1.30533196
H       0.57799708      1.46099438      0.12343958
H       0.01054910     -1.43989430      0.02555387
H      -3.07812713      1.28911405      0.04680396
H      -1.63326655      1.76533464     -0.84850927
H      -1.60381656      1.74587461      0.91229225
H      -3.31319404     -0.92458504     -0.12027958
