16
b3lypvtz=-204429.37851664
C      -1.48690328      0.64227374     -0.16030744
C      -1.30860713     -0.75667046      0.41081520
O      -0.24285856     -1.44396982     -0.24205689
C       0.92807337     -0.70238603     -0.45108743
C       1.68794121     -0.03657826      0.65856797
C       0.93667626      0.80007319     -0.37417482
N      -0.29039623      1.46917118     -0.01678668
H      -2.32197525      1.14521977      0.32982974
H      -1.73414477      0.55791401     -1.22280465
H      -2.19442623     -1.37149433      0.24786932
H      -1.12469703     -0.70545468      1.49273550
H       1.50439456     -1.16983534     -1.23726216
H       1.26919810     -0.06317509      1.65560214
H       2.76871007     -0.06211197      0.62269307
H       1.54346058      1.32695035     -1.10350601
H      -0.23610466      1.87937974      0.90496015
