9
b3lypvtz=-209831.672304957
C      -0.09221798      1.06850909     -0.11721890
N      -1.38199745      0.82519925     -0.15579483
C      -1.48185488     -0.54538494     -0.01642533
N      -0.35376354     -1.20940754      0.10961029
C       0.56540046     -0.18808806      0.04779247
N       1.86616636     -0.40506034      0.13569293
N       2.97245141     -0.55710560      0.20732318
H       0.34742111      2.05039120     -0.19863633
H      -2.44160551     -1.03905306     -0.01234348
