15
b3lypvtz=-212079.71158529
C       2.93881708      0.80661122      0.18451389
N       2.57387793     -0.41543057      0.11362269
N       1.28788755     -0.76600924     -0.08584290
C       0.18445607      0.05845131     -0.23090416
N      -0.98543411     -0.41245295     -0.05551460
N      -2.06768209      0.36979595     -0.39981090
C      -3.25669220      0.05573804      0.37809184
H       3.99739232      0.98590584      0.31458727
H       2.27805782      1.66873860      0.13300708
H       1.10976628     -1.74754899      0.04366076
H       0.38592949      1.07661136     -0.56220963
H      -1.85689344      1.36580883     -0.39392284
H      -3.13962088      0.23621515      1.45392431
H      -4.08278851      0.66076290      0.00450924
H      -3.50275432     -0.99484344      0.23207894
