11
b3lypvtz=-212967.51955044
C      -2.63776782     -0.32445192      0.00001549
C      -1.63656950      0.55167869     -0.00004029
C      -0.21879013      0.20504972     -0.00006881
N       0.24745021     -1.01816213     -0.00000641
O       1.60779254     -0.90706867     -0.00008675
N       2.00011375      0.40552458     -0.00000805
C       0.89927108      1.09236651      0.00001720
H      -3.66589045      0.00906853      0.00000847
H      -2.45793656     -1.39102086      0.00006565
H      -1.84913873      1.61431807     -0.00006804
H       0.91724960      2.16945649      0.00020153
