15
b3lypvtz=-216887.66032135
O       2.76481827      0.21774070     -0.31752565
C       1.70096889     -0.35778299      0.42088950
C       0.41548024     -0.34394674     -0.37651953
O       0.05169499      1.04807483     -0.68395603
C      -1.11944492      0.92401243      0.13442836
C      -2.04927657     -0.10091832     -0.41905936
C      -0.86814483     -0.53534620      0.42033605
H       2.47491880      1.09839006     -0.58350693
H       1.98880618     -1.38803786      0.64215905
H       1.54695874      0.16537350      1.37289514
H       0.52607049     -0.92535837     -1.29541140
H      -1.39720991      1.75984757      0.76049148
H      -2.06255660     -0.28476038     -1.48678015
H      -3.00869575     -0.17712079      0.07642144
H      -0.96448802     -1.10016744      1.33513803
