15
b3lypvtz=-237835.77001947
C      -2.89651783     -0.31841372      0.09417289
N      -1.52064088     -0.70413792     -0.12831734
C      -0.49475634      0.20176910     -0.04137892
N      -0.54766845      1.47355194      0.02312247
O       0.69084373     -0.45440022     -0.05803902
C       1.87303571      0.36820078     -0.01315439
O       2.97758274     -0.47086199     -0.02499121
H      -3.52506579     -1.20249010      0.00979129
H      -3.22701397      0.39495976     -0.66394857
H      -3.05774980      0.13006313      1.08104794
H      -1.26341223     -1.66260823      0.03247415
H      -1.50123699      1.81588788      0.03344753
H       1.91564663      0.98843543     -0.90583811
H       1.81752422      1.00130519      0.87440897
H       3.02122724     -0.94036104      0.81432733
