13
b3lypvtz=-213788.25211803
C       2.48950188     -0.52436838      0.00412932
C       1.08026271     -0.04692957      0.00237883
C       0.59941255      1.21127725      0.00181314
O      -0.79034103      1.13975301     -0.00094574
C      -1.04132046     -0.18664982     -0.00017513
N      -2.35526335     -0.56603471     -0.06802460
N       0.00748807     -0.94444632      0.00602200
H       3.18835746      0.31152844      0.00873112
H       2.68940144     -1.13796223     -0.87655817
H       2.68528593     -1.14457337      0.88112129
H       1.02873385      2.19485874      0.00674867
H      -2.51013424     -1.52709067      0.18921198
H      -3.01396382      0.08156763      0.33359830
