11
b3lypvtz=-233860.07747892
N       3.36881720     -0.39017941     -0.31191575
C       2.19478728     -0.06628270     -0.59355154
O       1.12097898     -0.32082610      0.24400066
N      -0.07446973      0.14446742     -0.31272032
N      -0.99906063     -0.09797301      0.45404864
C      -2.24833072      0.35807748     -0.07124021
N      -3.32964467      0.20996332      0.55625468
H       3.43498203     -0.85584940      0.59347926
H       1.91278116      0.43918861     -1.51159207
H      -2.21814380      0.84233881     -1.04599730
H      -3.16289711     -0.26282501      1.44733395
