16
b3lypvtz=-227757.9580169
C       0.20263024      0.69392371      1.40573377
C       0.08147389      0.25100124     -0.05575580
N      -0.37644921      1.29413586     -0.97424581
C       1.42382839     -0.25793205     -0.58284117
O       2.33734254     -0.63664959      0.10321715
C      -0.89636928     -0.94283885     -0.20105650
O      -2.24533260     -0.57244812      0.05498758
H      -0.77129625      0.99292077      1.79737128
H       0.61513593     -0.09887505      2.02970835
H       0.86953482      1.55338453      1.48857391
H      -1.38320428      1.38815754     -0.90498227
H       0.03534608      2.19026220     -0.74509647
H       1.48343282     -0.25994258     -1.68971488
H      -0.88116985     -1.29653093     -1.23214729
H      -0.57455781     -1.75820356      0.45211171
H      -2.37195842     -0.49219011      1.00485842
