14
b3lypvtz=-203664.12992257
C      -0.12991265     -1.42555249      0.13862713
O       0.92126725     -1.10951170     -0.78055920
C       1.60505936      0.03987471     -0.49084546
C       1.07913865      1.06170994      0.17949294
N      -0.25468725      1.06524013      0.68884919
C      -1.31041525      0.87007771     -0.34052561
C      -0.93963472     -0.22871170      0.57426468
H       0.31441467     -1.88841724      1.02723483
H      -0.75341775     -2.16838048     -0.35878655
H       2.61437896      0.03584341     -0.87791296
H       1.65693294      1.95382061      0.37279616
H      -0.98021211      0.81098941     -1.37025538
H      -2.22288376      1.42795905     -0.17228295
H      -1.60002835     -0.44504137      1.40970319
