15
b3lypvtz=-214544.92024796
C       2.81984442     -0.23704540      0.25575563
N       1.70832394     -0.75806566     -0.05224316
C       0.58846789      0.16582935     -0.07746270
O       0.64830908      1.35192390      0.18289423
N      -0.53015057     -0.49840324     -0.44158162
C      -1.83799507      0.12492298     -0.54672637
C      -2.75229368     -0.19743940      0.63401794
H       3.70223457     -0.87010534      0.29450125
H       2.92118482      0.82580619      0.48340538
H      -0.42238490     -1.48561237     -0.60521807
H      -2.30057545     -0.19653418     -1.48255156
H      -1.66740791      1.19776278     -0.61179096
H      -3.72388923      0.28189299      0.50228961
H      -2.91775057     -1.27262404      0.72541839
H      -2.31690433      0.16192344      1.56647100
