13
b3lypvtz=-213747.82840326
C       0.50703453      1.51793387      0.20513221
C       0.41897047      0.02464354      0.24790504
C      -0.86482074     -0.62102054      0.73393513
C      -2.02988715     -0.24690772     -0.06695979
N      -2.94079032      0.05966950     -0.69878253
N       1.33227516     -0.80659972     -0.06239543
O       2.52272309     -0.18891102     -0.46874227
H       0.41640140      1.92774223      1.21474010
H      -0.31774100      1.92694533     -0.38137955
H       1.44888724      1.84460885     -0.22252147
H      -1.06007100     -0.32586247      1.76975530
H      -0.74594834     -1.70407793      0.71348738
H       3.08305967     -0.94211691     -0.68079413
