17
b3lypvtz=-215257.78047314
N       3.18000416      0.43274167     -0.40216306
C       2.10687643     -0.10539100      0.43940792
C       0.80173787     -0.18900219     -0.34578818
C      -0.34765576     -0.78484867      0.48632478
C      -1.62530001     -0.87252400     -0.29198571
N      -2.54030551      0.00521825     -0.38652594
O      -2.24513128      1.16370167      0.36480508
H       4.06221425      0.41971479      0.09579196
H       2.99313404      1.40314981     -0.62972168
H       2.40394192     -1.10977415      0.75330313
H       1.93439280      0.47329996      1.35903118
H       0.51185373      0.81087971     -0.67952828
H       0.97060813     -0.78528538     -1.24515415
H      -0.07170635     -1.78907280      0.81782667
H      -0.51066692     -0.17335696      1.37400091
H      -1.83105125     -1.76500063     -0.87518182
H      -3.02459227      1.70662193      0.21324618
