18
b3lypvtz=-181909.24450293
C       0.97378333      1.91893406     -0.00635005
C       0.16777295      0.86827421     -0.07857792
C      -1.33027349      0.89258228      0.16441097
N      -1.76671480     -0.46011856     -0.20368323
C      -0.65558407     -1.35295649      0.12659524
C       0.56338041     -0.56926154     -0.38127468
C       1.90195551     -1.02708814      0.18620269
H       2.04126982      1.83400573     -0.16147021
H       0.59478796      2.91017182      0.21054732
H      -1.83987978      1.64564304     -0.44004505
H      -1.52071774      1.13404801      1.22184068
H      -2.62829446     -0.72406021      0.25466312
H      -0.54640256     -1.53458221      1.20916799
H      -0.77354254     -2.31923754     -0.36597270
H       0.58339207     -0.67984426     -1.47128098
H       2.72897748     -0.45193054     -0.23157571
H       1.92884937     -0.91114396      1.27114164
H       2.08393455     -2.07777167     -0.04878712
