10
b3lypvtz=-331316.66487826
O      -0.72371181      1.38556352     -0.01510475
C      -0.29328026      0.13417131      0.42926656
O      -1.22054273     -0.88618562      0.19762849
C       0.99803623     -0.29009142     -0.29024096
F       0.81847489     -0.30945710     -1.62615333
F       1.40831144     -1.50474422      0.09376597
F       1.98368918      0.58198760     -0.02397753
H      -0.89898247      1.32482403     -0.96349137
H      -0.05842456      0.25726962      1.48950626
H      -2.01346992     -0.69343770      0.70900064
