13
b3lypvtz=-213777.78049094
C       1.53850905      0.70642995      0.11271744
C       1.66491844     -0.64473780     -0.11920835
N       0.41460436     -1.18913439     -0.20563351
C      -0.53929663     -0.19313273     -0.02929594
C       0.14944641      0.98109013      0.16784618
O      -0.40706189      2.20671951      0.38068533
N      -1.93555905     -0.35704220     -0.05051300
H       2.33919017      1.41578783      0.22905869
H       2.54762756     -1.24978414     -0.22958303
H       0.20899953     -2.15735947     -0.37036050
H      -1.36514846      2.08073012      0.36518372
H      -2.31212787     -0.65858915     -0.94018506
H      -2.30410162     -0.94097769      0.68928800
