17
b3lypvtz=-191983.29498781
C      -3.12708928     -0.28718049     -0.41797326
C      -1.86970601      0.40337654      0.00234775
N      -0.83846355     -0.22753320      0.36804431
C       0.33266497      0.54550811      0.75585447
C       1.56248534      0.12381122     -0.02949168
C       1.89645532     -1.34437577     -0.01720918
N       2.22297622      1.03530328     -0.61646359
H      -3.39184868     -0.00606475     -1.44089858
H      -3.96190371      0.02016123      0.21777090
H      -3.00868547     -1.36716274     -0.35935267
H      -1.88632987      1.50276301     -0.02146324
H       0.52504587      0.33836841      1.81547569
H       0.20136401      1.62545897      0.63256839
H       2.09828568     -1.67804340      1.00432968
H       1.04539443     -1.92680265     -0.37123658
H       2.76870308     -1.55642374     -0.63479149
H       3.03861164      0.64385096     -1.09095490
