13
b3lypvtz=-192866.04343193
O       2.78883963      0.00475215     -0.44031142
C       1.68097382     -0.71335155     -0.19721922
C       0.40894836     -0.26384426     -0.19277864
C      -0.08732405      1.08354739     -0.44408543
C      -1.44021069      1.04807716     -0.32909930
C      -1.85882007     -0.30817573     -0.00324112
C      -0.75838062     -1.09611984      0.07945948
H       2.55054485      0.92338637     -0.61908520
H       1.92099418     -1.74894808      0.00684498
H       0.50612912      1.95477839     -0.67915933
H      -2.10831441      1.88664703     -0.45705838
H      -2.88133297     -0.62000177      0.14514577
H      -0.72214714     -2.15074725      0.30418782
