15
b3lypvtz=-212087.62815068619
C      -1.05723443     -0.77476056      0.16841851
C       0.17589311      0.06188443      0.23721514
N       0.09488599      1.38949677      0.24949289
N      -0.97118620      2.11619584      0.22585180
C       1.51696583     -0.46308954      0.29737563
N       2.54880541      0.30155822      0.32540510
N      -1.55402510     -0.90158492     -1.21246133
H      -1.83925193     -0.28196973      0.74944276
H      -0.84446993     -1.73868521      0.65084139
H       1.03299860      1.81122501      0.29234325
H      -0.66251671      3.08561834      0.27812639
H       1.58203824     -1.55514577      0.32365963
H       3.41471103     -0.22390277      0.37887084
H      -0.95591885     -1.51804991     -1.74968235
H      -2.48169504     -1.30879022     -1.21489963
