14
b3lypvtz=-180330.50988342
C      -0.27573354      1.51447823     -0.26637775
C      -0.04224335      0.05493662      0.18153694
C      -1.19113698     -0.77726628     -0.21614009
C      -2.13137222     -1.44377342     -0.54363147
C       1.18155977     -0.47087642     -0.46447130
C       2.20353241     -0.87278275     -0.94790947
N       0.05062201      0.04117604      1.65762793
H       0.57249612      2.12880971      0.03733709
H      -1.18017522      1.88982116      0.20792080
H      -0.37731034      1.57152124     -1.34807993
H      -2.96290284     -2.03660198     -0.83285923
H       3.10122044     -1.23672650     -1.38192466
H       0.88321253      0.55020621      1.93631528
H       0.16823119     -0.91292189      1.98065587
