21
b3lypvtz=-172596.36742127
C       0.69319761      0.00000774      1.52541910
C       0.67312676     -0.00000095     -0.01021105
C       1.40329446     -1.25549178     -0.51934469
C       1.40329928      1.25548137     -0.51935874
C      -0.74315441     -0.00000144     -0.59323091
C      -1.90296156      0.75435635     -0.00264388
C      -1.90296281     -0.75435325     -0.00263878
H       0.20623651      0.88388873      1.93986635
H       1.72494820      0.00000734      1.88195964
H       0.20623232     -0.88386617      1.93987658
H       1.42741960     -1.27948208     -1.61104129
H       0.90500110     -2.16411737     -0.17633413
H       2.43525881     -1.28070320     -0.16223032
H       1.42742569      1.27945869     -1.61105560
H       2.43526331      1.28069349     -0.16224356
H       0.90500863      2.16411271     -0.17635944
H      -0.72463051     -0.00000514     -1.67853229
H      -2.57317074      1.27072242     -0.67623229
H      -1.76903665      1.24991118      0.94876775
H      -2.57317290     -1.27072275     -0.67622367
H      -1.76903870     -1.24990189      0.94877621
