14
b3lypvtz=-201297.99813459
C       2.16260585     -0.18981843      0.00002796
C       0.67540144     -0.32164565      0.00002054
C      -0.30132685      0.65076786      0.00002194
C      -0.24494757      2.13918819     -0.00000587
N      -1.45449423     -0.06510254      0.00005850
H      -2.40388146      0.26939166     -0.00012580
N      -1.22400009     -1.38978189     -0.00000901
N       0.06373346     -1.54331919     -0.00000261
H       2.52644168      0.34299243     -0.88105735
H       2.60681749     -1.18347546     -0.00010198
H       2.52647994      0.34271661      0.88125533
H       0.79092538      2.47341089      0.00003585
H      -0.72996106      2.56382010      0.88214082
H      -0.72986996      2.56378040     -0.88222333
