14
b3lypvtz=-224571.0911011
N      -2.40554116     -0.75010038     -0.80471939
C      -2.33908815      0.17500721      0.04689573
O      -1.26632269      0.74760035      0.65647669
C       0.03176699      0.23568004      0.36026508
C       0.54521321      0.71232431     -0.97236675
N       1.67663726      0.42527315     -1.48060569
N       2.53677074     -0.37140890     -0.76594434
H      -1.50073389     -1.11077269     -1.09866889
H      -3.24165811      0.65214693      0.41816777
H       0.02213973     -0.86100684      0.42699090
H       0.67594271      0.60006584      1.16377398
H      -0.08363762      1.39316212     -1.53477939
H       2.11479562     -1.08812502     -0.18354748
H       3.23381536     -0.75974611     -1.38183823
