16
b3lypvtz=-204488.64818579
C       2.36109433     -0.56121792     -0.25354294
C       1.08085269     -0.07019759      0.40618101
C       0.58392663      1.30033241     -0.10453132
C      -0.94214567      1.23028152      0.02532766
C      -1.25964865     -0.26401541     -0.01774984
O      -2.35051627     -0.78030275     -0.13317765
N      -0.06777814     -0.92272324      0.11741594
H       2.65196226     -1.54393749      0.12292982
H       2.23319478     -0.63289704     -1.33478447
H       3.18212156      0.12740777     -0.04601702
H       1.24381587     -0.01771866      1.49094029
H       0.86569660      1.40955206     -1.15368526
H       1.03439323      2.12390918      0.44726234
H      -1.29536720      1.61510898      0.98520302
H      -1.48668662      1.75737826     -0.75514138
H      -0.06487142     -1.91761107      0.27640080
