13
b3lypvtz=-239634.25194947
C       1.07751633     -1.00897096     -0.74218306
N       0.17698938     -0.09863589     -0.04159206
N       0.61355973      0.62493381      1.00103992
N       1.81739363      0.43617989      1.28400149
C      -1.16723782      0.09090692     -0.38450143
C      -2.06892558      0.88389367      0.17523361
F      -1.50063605     -0.67808590     -1.43746959
H       1.92610849     -0.45143261     -1.13865477
H       1.46507803     -1.75041227     -0.04347143
H       0.53743561     -1.49389657     -1.54453860
H       2.00174418      1.04426631      2.08371911
H      -1.81110429      1.50157861      1.01674790
H      -3.06802164      0.89947500     -0.22823108
