15
b3lypvtz=-193594.26864701
C       3.54033764     -0.15874804     -0.09926765
C       2.36454861      0.09072715     -0.05422193
C       0.98584330      0.42792156     -0.01576855
C       0.01570230     -0.42084520      0.34180703
C      -1.45817900     -0.12712024      0.38835012
C      -1.87717595      1.25138124     -0.10653197
O      -2.17167100     -1.16662976     -0.29969704
H       4.57575135     -0.38896001     -0.13504215
H       0.74288056      1.44745339     -0.29521699
H       0.27668393     -1.43652614      0.61890280
H      -1.78702998     -0.23833399      1.42657149
H      -1.44383402      2.04572054      0.50331740
H      -1.57127928      1.40953649     -1.14318357
H      -2.96191297      1.33416611     -0.05571542
H      -1.85961750     -1.18794011     -1.21138055
