13
b3lypvtz=-213756.69563296
C       2.41362589     -0.90584591      0.45712418
C       1.45708033     -0.35366133     -0.00887284
C       0.30233527      0.33950180     -0.57276977
N       0.33453112      1.76581329     -0.19890764
C      -1.00135123     -0.35250272     -0.07845443
N      -1.56990876      0.25425901      0.98496144
O      -1.42229552     -1.35077527     -0.62528511
H       3.25331525     -1.40839384      0.86811556
H       0.30458669      0.17579382     -1.65554528
H      -0.18844767      2.31386495     -0.87193236
H       1.28728143      2.10687128     -0.20041597
H      -2.41311156     -0.12660777      1.37656350
H      -1.17195223      1.11401170      1.32564474
