17
b3lypvtz=-217679.13032122
C      -3.14897247      0.19596899     -0.19079533
O      -1.85297329     -0.29174070     -0.46024537
C      -0.93447834     -0.01842542      0.59727737
C       0.37160160     -0.67234892      0.30702114
C       1.52556669     -0.06263966      0.01896147
C       1.79240340      1.40404984     -0.08027314
O       2.67912711     -0.76007439     -0.23150316
H      -3.15483537      1.28691565     -0.06436792
H      -3.57297428     -0.25649578      0.71556202
H      -3.77802780     -0.06227946     -1.04120186
H      -0.82712726      1.06489392      0.72437837
H      -1.35182452     -0.40979446      1.53712491
H       0.35739249     -1.75925147      0.31470222
H       2.20988093      1.63180912     -1.06301295
H       0.89515838      1.99789953      0.06461538
H       2.53652221      1.69988666      0.66243638
H       2.49588953     -1.70499844     -0.17788153
