14
b3lypvtz=-226981.0648613
O       3.19149562      0.02817782      0.43013661
C       1.89990965     -0.30666137      0.59943955
N       0.96879936      0.19461800     -0.08308954
C      -0.38237486     -0.22849727      0.17238956
C      -1.43109745      0.89261552      0.33311545
O      -2.26219430      0.32224842     -0.70334274
C      -1.22236308     -0.61543513     -1.06335901
H       3.22463320      0.68746473     -0.27938232
H       1.78905290     -1.05160287      1.38990684
H      -0.44666622     -0.97638184      0.97066241
H      -1.04658540      1.87791504      0.05719602
H      -1.95172163      0.94898430      1.29103545
H      -0.73779182     -0.35094349     -2.00689038
H      -1.59319597     -1.64130185     -1.10781791
