13
b3lypvtz=-218753.25027311
C      -0.84348473      1.56438901     -0.21057855
C      -0.60301017      0.24806093     -0.21176836
C      -1.71667869     -0.74166167     -0.15285827
N      -2.84677449     -0.62689786      0.40888928
C       0.74161749     -0.33474309     -0.32268858
C       1.81408164      0.16194650      0.27739597
F       3.02547762     -0.40284826      0.13705628
H      -1.85115070      1.95112859     -0.13440601
H      -0.04789449      2.28814836     -0.31856188
H      -1.51028574     -1.68973031     -0.65621481
H      -2.93338693      0.27540563      0.88253248
H       0.85410962     -1.25172960     -0.89109580
H       1.83518657      1.02391279      0.93041427
