13
b3lypvtz=-237031.70490044242
C       0.68559362     -1.28791424      0.36858126
C      -0.11974688     -0.11175296     -0.10538043
C      -0.25116359      1.05905191      0.60153213
N      -0.96647749      2.12287407      0.21835444
N      -0.78907705     -0.14443013     -1.30876453
O      -0.64532166     -1.17430266     -1.98177890
O       1.78237962     -1.58905814     -0.48526382
H       1.10325498     -1.08193436      1.35516333
H       0.02563683     -2.15841865      0.46161040
H       0.25595114      1.16036291      1.55385666
H      -1.01762836      2.95085634      0.78034144
H      -1.45351875      2.08757683     -0.66322887
H       1.39011745     -1.83291072     -1.33308757
