16
b3lypvtz=-209454.62456539
C       1.41832915      1.79772153     -0.14171077
C       0.71101583      0.68874321      0.10872445
C      -0.73421326      0.69556067     -0.10926246
C      -1.56454756     -0.30315967      0.16757867
F      -2.88962795     -0.18893738     -0.05306438
C       1.39079799     -0.56993391      0.60191446
C       1.58173024     -1.63751329     -0.48667481
H       2.48712795      1.83433472      0.02267969
H       0.94889112      2.69827700     -0.51635691
H      -1.16851190      1.60088600     -0.51867596
H      -1.30812445     -1.26828700      0.57968958
H       2.36678303     -0.29883623      1.00686199
H       0.82319902     -0.99508430      1.43450289
H       0.63250596     -1.95195931     -0.92034068
H       2.07221025     -2.52123904     -0.07539479
H       2.20277657     -1.25278000     -1.29648396
