13
b3lypvtz=-192831.32898032
C       3.02326698     -0.38574734      0.21378168
C       1.83370686     -0.21297562      0.17207744
C       0.43475582     -0.03768780      0.06647474
C      -0.35469714     -0.50439947     -1.13713136
O      -1.70567733     -0.14464409     -0.85719298
C      -1.79666493      0.49793869      0.41627207
C      -0.39777961      0.53007849      0.94131848
H       4.07343404     -0.53131127      0.26477701
H      -0.27461985     -1.58778016     -1.28089180
H      -0.01771761     -0.01676711     -2.05871368
H      -2.22078327      1.50303313      0.29562231
H      -2.47501948     -0.06594053      1.06943936
H      -0.12230450      0.95630307      1.89416673
