14
b3lypvtz=-229601.79303725
C       2.85228773      0.31560311     -0.45646058
N       1.52659101      0.82385109     -0.18341640
C       0.57760488     -0.01802555     -0.08050906
C      -0.78053982      0.39227391      0.19184828
C      -1.81293758     -0.45542043      0.31228479
N      -3.14615813     -0.16836854      0.45440634
F      -1.62680504     -1.78666374      0.23497511
H       3.23093870      0.76007940     -1.38062199
H       3.53382670      0.62445698      0.34063451
H       2.89685505     -0.77903889     -0.55071031
H       0.75398759     -1.09555693     -0.19245490
H      -0.97159190      1.45170072      0.29265897
H      -3.35851882      0.78511409      0.69924841
H      -3.67554036     -0.85000523      0.97690188
