14
b3lypvtz=-203707.42257928
C      -1.49191712      0.42068321      0.11071839
C      -0.76764976     -0.95096598      0.12112357
C       0.70182918     -0.61603396     -0.02939054
N       1.75344852     -1.33097108     -0.08512048
C       0.81364394      0.84326124     -0.11898273
C      -0.38678302      1.43316047     -0.04352075
O       2.02827922      1.40142333     -0.25839932
H      -2.05936581      0.58149750      1.03161819
H      -2.21482158      0.48622506     -0.70723862
H      -1.09587867     -1.59543720     -0.69582871
H      -0.93911529     -1.49919924      1.04877261
H       1.56364539     -2.32834125     -0.01375530
H      -0.56023069      2.49844435     -0.08606046
H       2.65491568      0.65625358     -0.27393583
