19
b3lypvtz=-171832.80768738
C       2.95986666     -0.47627341     -0.02976303
C       1.87479451      0.55807491     -0.05245009
C       0.57376924      0.30662988     -0.06935464
C      -0.26540312     -0.95761839      0.02010031
C      -1.47725324     -0.06351664      0.43022940
C      -2.82110203     -0.32191419     -0.22567052
C      -0.66025966      1.18877958     -0.01658538
H       3.60752593     -0.35434708      0.84338037
H       2.55371863     -1.48777042     -0.00959433
H       3.60433573     -0.39278564     -0.90987717
H       2.19602820      1.59676294     -0.05384752
H      -0.42102852     -1.43120898     -0.95421420
H       0.05111380     -1.72612294      0.72666758
H      -1.58452915     -0.06569192      1.51652805
H      -2.73080117     -0.32257594     -1.31487110
H      -3.23099553     -1.28922508      0.07446286
H      -3.54992007      0.44515632      0.04674459
H      -0.63869462      2.04448263      0.65955540
H      -0.96842661      1.53929036     -1.00642760
