19
b3lypvtz=-195137.30658688
C       2.85415737     -0.45637848     -0.09533607
C       1.68889250      0.49038463     -0.38220083
C       0.50861507      0.30372284      0.56825518
C      -0.35956194     -0.96513374      0.31223646
C      -1.39311152     -0.08553018     -0.40922464
O      -2.73436521     -0.39879858     -0.07959492
C      -0.74173560      1.16640469      0.23077753
H       3.24197986     -0.30434121      0.91443381
H       2.54931917     -1.50155121     -0.17638969
H       3.67694218     -0.29769281     -0.79427146
H       2.03665733      1.52581507     -0.30900467
H       1.35373828      0.35669742     -1.41625127
H       0.86114682      0.40552994      1.59601107
H      -0.78909667     -1.36105049      1.23227061
H       0.08519794     -1.78489355     -0.25202552
H      -1.25327703     -0.10138877     -1.49480078
H      -3.32181441      0.15439649     -0.60361031
H      -1.29103253      1.46041443      1.12527300
H      -0.58967761      2.04184253     -0.40295652
