16
b3lypvtz=-232764.77962194
C      -1.36205176     -0.02243639      0.63331306
C      -0.52696089     -0.94709016     -0.26239519
C       0.67059215     -0.06003453     -0.66710222
O       0.28777781      1.29395350     -0.39697272
C      -1.07763960      1.34297267      0.01818465
C       1.95772671     -0.36712740      0.06926538
F       1.73474387     -0.49911474      1.44125607
H      -2.42229727     -0.27401978      0.63518591
H      -0.99309580     -0.05539261      1.65807246
H      -1.09367402     -1.23531234     -1.14861967
H      -0.21249369     -1.85616907      0.24677706
H       0.88804468     -0.15986614     -1.73814303
H      -1.72843686      1.53151377     -0.84568892
H      -1.18373337      2.17225591      0.71701653
H       2.38705819     -1.30703982     -0.28721154
H       2.67443984      0.44290712     -0.07293784
