18
b3lypvtz=-205204.78809551
C      -1.98184133     -0.65911133     -0.73413373
C      -0.87308184     -0.08993584      0.11658401
O      -0.44808579     -0.95654266      1.13987238
C      -0.84901365      1.37620309      0.43673685
C       0.19053142      0.78398538     -0.49949270
C       1.62021575      0.60021459     -0.04375362
N       2.05357604     -0.79343234     -0.28730267
H      -2.30658300      0.05161680     -1.49587779
H      -2.84136935     -0.90993732     -0.10964507
H      -1.65155077     -1.57259534     -1.23385609
H       0.37724756     -1.36255665      0.82285176
H      -1.61466861      2.01470946      0.01735083
H      -0.51700463      1.64904038      1.42924869
H       0.07217995      1.01127512     -1.55360997
H       1.68969203      0.76978417      1.03045111
H       2.26464589      1.34357541     -0.52899890
H       2.05355385     -0.99504935     -1.28115718
H       3.00269649     -0.93565059      0.03909208
