13
b3lypvtz=-213776.32254798
C       0.49726068     -1.20844334     -0.14932069
C      -0.50978277     -0.27953379      0.01909270
C       0.10808857      0.99893030      0.07926518
C       1.46437600      0.83072400     -0.05166627
N       1.67992595     -0.52777094     -0.19095442
O      -0.56845439      2.16711496      0.24030584
N      -1.92646361     -0.41508553      0.12833910
H       0.45673255     -2.28006523     -0.24102889
H       2.26957649      1.54187558     -0.05813996
H       2.58164953     -0.95089328     -0.30327003
H      -1.50251498      1.91526124      0.29773762
H      -2.20546180     -0.96947169      0.92779085
H      -2.34493222     -0.82264227     -0.69815105
