15
b3lypvtz=-191209.59516518
C      -2.30510766      0.00000021      0.23015170
N      -0.96365063      0.00000026     -0.33676357
C      -0.20934262      1.18201131     -0.11044512
C       1.11233025      1.18555994      0.04842630
N       1.89049073     -0.00000008     -0.01663576
C       1.11233004     -1.18556001      0.04842559
C      -0.20934282     -1.18201106     -0.11044582
H      -2.30997747     -0.00000007      1.33058023
H      -2.84408607      0.88167399     -0.11715025
H      -2.84408620     -0.88167332     -0.11715070
H      -0.76885121      2.10547429     -0.13137728
H       1.66005056      2.10950454      0.15633855
H       2.67681750     -0.00000034      0.61832238
H       1.66005020     -2.10950475      0.15633728
H      -0.76885160     -2.10547390     -0.13137854
