16
b3lypvtz=-202072.15009036
C      -2.50660782     -0.81541160     -0.02193035
C      -1.25081218      0.03308667      0.00812570
N      -1.28721350      1.32745302     -0.01098887
C      -0.01147501     -0.69760436      0.06090687
C       1.23202832     -0.11667306      0.01459418
N       2.39057143     -0.86967767     -0.10819423
N       1.42119923      1.22829769      0.06461617
H      -2.51600755     -1.46008377     -0.90361238
H      -3.40185815     -0.19449570     -0.03568601
H      -2.55076082     -1.46734250      0.85335167
H      -2.24162712      1.67008290     -0.07182422
H      -0.06031227     -1.77610249      0.11885057
H       3.18113183     -0.51623494      0.41020235
H       2.26224843     -1.86064771      0.01731145
H       0.54505587      1.75531125     -0.00190766
H       2.23409632      1.59361028     -0.40392225
