15
b3lypvtz=-216897.20337875
C      -3.38129780     -0.37442990     -0.28659799
C      -2.29117545      0.00967641      0.03013767
C      -0.98249244      0.50528603      0.43162146
O       0.03385383     -0.37524029     -0.04548009
C       1.34067516      0.03752070      0.29336039
C       2.27349326     -1.09847074     -0.07406956
O       1.68798677      1.25587295     -0.33344161
H      -4.34362236     -0.72023367     -0.57060173
H      -0.93398777      0.57200630      1.52665366
H      -0.82769551      1.51302498      0.03499540
H       1.39243808      0.26417826      1.36442163
H       3.30202733     -0.82401338      0.15545481
H       2.19135748     -1.31521287     -1.14120691
H       2.01079259     -2.00112989      0.47609492
H       1.74191081      1.09692712     -1.28358805
