15
b3lypvtz=-193610.02415488
C      -2.32405049     -0.48230156     -0.51306460
C      -1.64728424      0.50677946      0.05135579
C      -0.26542019      0.38942448      0.64190915
C       0.76526159      1.23349794     -0.06856519
C       1.75279036      0.46984433     -0.50817341
C       1.49952107     -0.95854850     -0.13423576
O       0.24988831     -0.94249675      0.56341276
H      -3.31664725     -0.32509039     -0.91360884
H      -1.90456521     -1.47664803     -0.58093767
H      -2.08735947      1.49735428      0.12787197
H      -0.32813356      0.67674996      1.70339287
H       0.66829697      2.30244582     -0.18879245
H       2.62227282      0.79425850     -1.06152056
H       1.42807105     -1.61594368     -1.00902871
H       2.27776725     -1.36621684      0.52237364
