17
b3lypvtz=-191979.43336981
C       2.20630927      0.25695831      0.05449287
C       0.84973653      0.48930038     -0.58894757
C       0.00242681     -0.76068180     -0.97836680
N      -1.05064876     -0.23677771     -0.11283142
C      -0.31675387      0.82344179      0.35948037
N      -0.60884181      1.65511604      1.27101777
C      -2.25027008     -0.84270550      0.39741041
H       2.60066824      1.18460770      0.47329522
H       2.93077024     -0.11149291     -0.67427708
H       2.13847576     -0.47076444      0.86503157
H       0.92542901      1.20670753     -1.40741278
H       0.43074330     -1.70939730     -0.63648743
H      -0.27766168     -0.85092258     -2.03099884
H       0.12917642      2.34222615      1.39243545
H      -2.72197340     -0.13371011      1.07535454
H      -2.94842322     -1.07673058     -0.40980506
H      -2.03916277     -1.76517499      0.95060877
