12
b3lypvtz=-228832.82077686
C      -2.52291431     -0.31815658      0.64291845
C      -1.52065234     -0.63220188     -0.17076607
C      -0.36941114      0.26009997     -0.44969952
N      -0.35241216      1.52965019     -0.46514998
N       0.78749426     -0.45834013     -0.83198194
C       1.83186140     -0.50290089     -0.16125480
F       2.00258226      0.06936648      1.04338532
H      -2.55552331      0.62577839      1.17325589
H      -3.34078345     -1.00380227      0.81574167
H      -1.48772384     -1.60209929     -0.65265277
H      -1.28453429      1.89744399     -0.28191478
H       2.72663191     -1.02899796     -0.47327247
