15
b3lypvtz=-214495.86473876
C      -0.13074483      1.87158865      0.43135733
C      -0.35597584      0.61233757      0.05316684
N      -1.72530954      0.23276830      0.00567513
N      -1.93895368     -0.93165478     -0.38481868
C       0.72883760     -0.36921699     -0.32491525
C       0.97089287     -1.41623228      0.76476628
O       1.91488157      0.38728195     -0.58073600
H      -0.96895950      2.50512518      0.68436998
H       0.87039510      2.27022333      0.47771281
H      -2.95924238     -1.05875047     -0.37759105
H       0.40612554     -0.88149864     -1.23693368
H       0.06702219     -1.99103322      0.95819943
H       1.74980767     -2.11406773      0.44676511
H       1.29408509     -0.93168106      1.68654999
H       2.63026114     -0.23242781     -0.75098725
