16
b3lypvtz=-204446.63413611
C       2.23802648      0.02412843     -0.36348404
C       1.35624498      0.04626658      0.86142048
O       1.66376840      0.63363714      1.87408195
C       0.01649004     -0.67410581      0.75286562
C      -1.05547244      0.29227696      0.28699982
C      -2.22235562     -0.15283878     -0.50690964
N      -1.11294644      0.56535171     -1.15764722
H       1.65215747      0.28418658     -1.24757223
H       2.61297957     -0.99120421     -0.52170948
H       3.07765694      0.70367079     -0.23821377
H      -0.24497817     -1.05665641      1.74038762
H       0.07665611     -1.50460711      0.04797207
H      -1.21327612      1.13184351      0.95566755
H      -3.16524650      0.36170253     -0.36673571
H      -2.31192210     -1.19521344     -0.78702250
H      -1.36778258      1.53156155     -1.33010051
