18
b3lypvtz=-181901.85564163
C      -3.31702285     -0.53872535     -0.30785441
N      -2.51198388      0.04436851      0.46567290
C      -1.38432332      0.75759015     -0.12577835
C      -0.08532602      0.26045940      0.44044852
C       0.94502761     -0.15446993     -0.28757661
C       2.26018059     -0.62686292      0.25768981
C       3.44311904      0.23254914     -0.20775198
H      -3.21540520     -0.53866411     -1.40090774
H      -4.16593896     -1.07622951      0.10989316
H      -1.37486216      0.69148135     -1.22279603
H      -1.51086943      1.81279990      0.14294934
H      -0.02332968      0.25036647      1.52462702
H       0.85726019     -0.14693956     -1.37271643
H       2.21927807     -0.64248585      1.34916967
H       2.43011920     -1.66046269     -0.06321135
H       3.33635598      1.26238641      0.13653931
H       4.38647093     -0.15806870      0.17726265
H       3.51093487      0.25229527     -1.29752747
