15
b3lypvtz=-214485.23179781
C       0.72007439      0.20208506      0.56349024
C      -0.76414159     -0.32838623      0.43075070
C      -1.09447766      0.95214660     -0.35419771
C       0.28438803      1.43898937     -0.25653964
O      -0.77543719      2.06574705      0.48613494
N      -0.83273557     -1.50937475     -0.41630236
N       1.70527168     -0.70649075      0.01853157
H       1.00274869      0.46388858      1.58308290
H      -1.29988537     -0.41149169      1.38241196
H      -1.84689652      1.09387384     -1.11859446
H       0.86779821      2.06412061     -0.92089952
H      -0.30848792     -2.26836983      0.00273485
H      -1.79131378     -1.81835662     -0.52055265
H       1.49853907     -0.92936527     -0.94743319
H       2.63455551     -0.30901597      0.06738237
