15
b3lypvtz=-214479.37484401
C       1.74465044      1.40983093     -0.08273693
C       0.67907113      0.36730477      0.04597163
C      -0.63442707      0.61306598      0.19383598
C      -1.73350514     -0.39357622      0.35778756
N      -2.90665114      0.01938214     -0.42444839
N       1.04488892     -1.01246066      0.00984253
O       2.24215847     -1.21663764     -0.07299893
H       2.47955255      1.31172528      0.71800039
H       2.29138091      1.28947498     -1.01932813
H       1.31272721      2.40833046     -0.04948496
H      -0.95323154      1.65167882      0.21247285
H      -1.93977586     -0.49832432      1.43477609
H      -1.39684205     -1.36720738      0.01213684
H      -3.55333764     -0.75417404     -0.51485320
H      -3.40930918      0.76406190      0.04491768
