20
b3lypvtz=-182669.36938175
C      -2.85276180      0.14372478      0.00009427
N      -1.67093295     -0.29038530      0.00012552
C      -0.57198516      0.67646849     -0.00006266
C       0.81225295      0.00065788      0.00000715
C       0.96511800     -0.86826625      1.25697529
C       0.96506163     -0.86864897     -1.25670273
C       1.88050276      1.10373250     -0.00018684
H      -3.68079251     -0.56254235      0.00035926
H      -3.11416023      1.21047182      0.00009227
H      -0.65540517      1.32271375      0.88124324
H      -0.65545134      1.32242904     -0.88157124
H       0.19206903     -1.63551696      1.29439232
H       1.93904998     -1.36181511      1.26898296
H       0.88642230     -0.26430752      2.16451496
H       1.93895228     -1.36228320     -1.26855506
H       0.19194935     -1.63584653     -1.29389897
H       0.88642630     -0.26495209     -2.16442211
H       2.88279529      0.67122065     -0.00020654
H       1.79425909      1.74104942     -0.88354298
H       1.79437721      1.74124594      0.88303888
