17
b3lypvtz=-191987.21261731
C       3.22440386     -0.25732789      0.00686647
C       1.74251165     -0.43688848      0.03254653
C       0.84928990      0.54622743     -0.04148799
C      -0.61601098      0.33403081     -0.01521106
N      -1.35451077      1.50969138     -0.02331412
N      -1.11017427     -0.84419873     -0.03046349
C      -2.54993966     -0.98717583     -0.00140936
H       3.66651924     -0.79936849     -0.83420272
H       3.50933043      0.79203302     -0.07566395
H       3.68301013     -0.66757636      0.91125202
H       1.36136295     -1.44967011      0.11296673
H       1.18815575      1.57481883     -0.12850869
H      -2.32379604      1.45397929      0.23874300
H      -0.89155195      2.34962207      0.27959764
H      -3.03292368     -0.54185088     -0.88210518
H      -2.80832353     -2.04494578      0.01504013
H      -3.00764602     -0.52785027      0.88863106
