11
b3lypvtz=-264568.12934849
C       1.71754583     -0.68431408      0.54872796
C       0.74285613      0.15057514      0.21055616
O      -0.56240327     -0.31569776      0.14460400
N      -1.42337989      0.70257642     -0.23065790
C      -2.62664240      0.33225019     -0.30635322
F      -3.06736125     -0.90071915     -0.05971033
O       3.04271905     -0.36363240      0.65426080
H       1.52881800     -1.72368806      0.77561108
H       0.86881108      1.19741411     -0.02760791
H      -3.39357272      1.03722482     -0.58986198
H       3.17260943      0.56801078      0.44530071
