14
b3lypvtz=-226993.80106341
N      -3.17846793     -0.09448773     -0.08737242
C      -2.05541165     -0.63877628      0.13645317
C      -0.73193151     -0.00981430     -0.02996175
O      -0.79905402      1.27207775     -0.46672210
C       0.38736256     -0.69857337      0.24314374
C       1.80392000     -0.23613352      0.13701055
O       1.85666174      1.12073932     -0.32150706
H      -3.03906351      0.86654708     -0.40791718
H      -2.03450656     -1.67129215      0.48674073
H       0.10828322      1.60814563     -0.54875096
H       0.26348311     -1.71832367      0.58418894
H       2.29407679     -0.32050314      1.11583814
H       2.35413600     -0.88736754     -0.55479926
H       2.77061176      1.40776191     -0.38604453
