14
b3lypvtz=-203682.22846924
C       2.39968851     -1.49165368     -0.06962696
C       1.57691417     -0.63983978      0.11809870
C       0.58015667      0.41959430      0.32238909
C       1.11289050      1.78411502     -0.14016512
N      -0.68540595      0.09204771     -0.32400117
C      -1.83807525     -0.20560499      0.33378445
O      -2.87192675     -0.54233255     -0.19793666
H       3.12035406     -2.25446978     -0.23035256
H       0.36510254      0.47885843      1.39282063
H       0.37804969      2.55938646      0.07445033
H       1.30892095      1.77397157     -1.21269795
H       2.04466694      2.02245642      0.37180774
H      -0.69175761     -0.04825375     -1.32429450
H      -1.73639648     -0.09265837      1.42897598
