12
b3lypvtz=-202881.41095646
N       2.88243813      1.37099408      0.16486274
C       1.81425842      0.95456983      0.06677404
C       0.49331588      0.38604900     -0.03287995
C       0.01356267     -0.82501926     -0.87402676
C      -1.20944591     -0.11357294     -0.25525827
C      -0.47821234     -0.02828731      1.10228067
O      -0.59599396      1.19555199     -0.63029074
H       0.13130207     -0.70579458     -1.94716044
H       0.26854762     -1.81974409     -0.51295461
H      -2.26542821     -0.24527172     -0.46491088
H      -0.78938877      0.78523465      1.75114015
H      -0.26485560     -0.95480965      1.63232404
