18
b3lypvtz=-181882.53388447
C      -2.15159996      0.01394631     -0.78238630
C      -1.19114553     -0.40176754      0.31406101
C       0.10848460     -1.03699669     -0.18034793
C       1.09792394     -1.12357672      0.95896695
C       0.83192773      0.20330502      0.32574787
N      -0.41524768      0.74433487      0.92290735
C       1.87159348      1.10267387     -0.26089865
H      -1.63226455      0.55875135     -1.57455276
H      -2.62826908     -0.86056132     -1.23195950
H      -2.94136592      0.65470769     -0.38326330
H      -1.72487829     -0.97381567      1.07901486
H       0.21939914     -1.60687064     -1.09315142
H       0.75162075     -1.31271764      1.96907669
H       2.04437194     -1.58396855      0.70506763
H      -0.67908468      1.60798196      0.45884231
H       2.29988452      1.74567636      0.51306288
H       2.68434954      0.52314676     -0.70006867
H       1.45430004      1.74575055     -1.04011906
