18
b3lypvtz=-181913.70546778
C       3.00246504      0.16148429      0.52678465
C       1.76960825      0.33179885     -0.37008182
C       0.87269538     -0.86457273     -0.33100261
C      -0.45584699     -0.93087562     -0.17516591
C      -1.43335872      0.16306030      0.00863313
C      -2.83269778     -0.30712913      0.34597606
N      -1.10788400      1.39188859     -0.11812490
H       2.71513095      0.06825683      1.57540125
H       3.57463145     -0.72976943      0.25839124
H       3.66613752      1.02252109      0.43756170
H       1.21194444      1.22808367     -0.11368174
H       2.10520652      0.46240014     -1.40674816
H       1.38701755     -1.81787136     -0.43856341
H      -0.89534364     -1.92282060     -0.16399141
H      -2.82927168     -0.90178104      1.26275418
H      -3.51306361      0.53358748      0.47572388
H      -3.22012249     -0.95157380     -0.44721855
H      -1.91149221      1.99529444      0.05475041
