14
b3lypvtz=-203642.31017569
C      -3.18528858     -1.79563059     -0.03779643
C      -2.76088436     -0.28312974      0.30279932
C      -1.33079000     -0.59249613     -0.04707457
N      -0.64024039     -1.28265680      0.77365447
C      -0.69711853     -2.64220773      0.13205061
C      -1.91939930     -2.37431929     -0.80052283
O      -1.42155367     -1.15067820     -1.36589375
H      -4.04080780     -1.80491251     -0.71030373
H      -3.43543386     -2.34587140      0.86792358
H      -3.24724009      0.43790868     -0.34658512
H      -2.90546456     -0.03986611      1.35013835
H      -0.84472112     -3.35878335      0.93986723
H       0.17874292     -2.93046843     -0.45326946
H      -2.14000067     -3.11758841     -1.56398768
