12
b3lypvtz=-179564.2739032
C      -2.85708088      0.25612592     -1.49683851
C      -2.11557063      0.23485647     -0.55566135
C      -1.21936475      0.19207999      0.59695007
N       0.15897627      0.48742016      0.21358224
C       1.02341230     -0.40781174      0.46219911
C       2.40612315     -0.23631267      0.15148942
C       3.58168878     -0.16022081     -0.08258647
H      -3.51033474      0.28064477     -2.33288965
H      -1.31574971     -0.78121958      1.09954302
H      -1.52976884      0.96005551      1.31227084
H       0.76063577     -1.36446742      0.93126664
H       4.61703323     -0.06813261     -0.29932536
