17
b3lypvtz=-194382.24116636
C      -1.05257086      1.98455721     -0.47734933
C      -0.16603823      1.41672367      0.33220932
C      -0.00381349     -0.07327400      0.53960025
C      -1.33927030     -0.78065980      0.39432403
O      -1.56141732     -1.70226896     -0.34744203
C       1.09345620     -0.70269093     -0.33604547
C       2.49223348     -0.15089371     -0.06635529
H      -1.09992459      3.05936956     -0.59177073
H      -1.75687245      1.40580212     -1.06352367
H       0.51662248      2.05089100      0.88710397
H       0.26996813     -0.21924608      1.59551864
H      -2.13770023     -0.38037116      1.05255657
H       1.08075645     -1.78151693     -0.17131332
H       0.82613812     -0.55340081     -1.38374454
H       3.23249039     -0.66492368     -0.68068924
H       2.56071362      0.91399100     -0.29376650
H       2.78053661     -0.28808649      0.97879534
