15
b3lypvtz=-193584.4285831
C      -1.88922768     -1.63682958      0.03105384
C      -1.13560431     -0.70309405      0.02859296
C      -0.27254651      0.45692734     -0.00337325
C      -0.94680403      1.74525731     -0.42005065
O       0.64501302      0.57891569      1.10674502
C       1.18695047      0.28335381     -0.18381949
C       1.86591310     -1.04302506     -0.36198366
H      -2.54909007     -2.46816743      0.04514629
H      -0.22446516      2.56049256     -0.41994811
H      -1.75129044      1.99085288      0.27399330
H      -1.37620852      1.64814874     -1.41805101
H       1.70036690      1.12947684     -0.63794743
H       1.27433717     -1.84834286      0.06887907
H       2.02008598     -1.24941916     -1.42319879
H       2.84354107     -1.02955502      0.12348991
