16
b3lypvtz=-225368.42512681
C       1.61788574      0.13560815      0.75963392
C       0.30153067      0.76042819      0.31692803
N      -0.66027462     -0.29700965      0.04299058
C      -1.91843783      0.03982089     -0.40319713
N      -2.33047388      1.23486761     -0.49123704
O      -2.69538360     -1.04572236     -0.72367475
N       2.10017849     -0.80289974     -0.26360880
H       1.45221579     -0.43252698      1.67701713
H       2.32735714      0.93845973      0.99397382
H      -0.09448879      1.40985019      1.09677438
H       0.45597389      1.39211470     -0.56672175
H      -0.22326148     -1.07982285     -0.42784500
H      -3.31502039      1.25030507     -0.73957591
H      -2.33656332     -1.83256253     -0.29636639
H       2.85873113     -1.37041856      0.09229527
H       2.46003106     -0.30049185     -1.06738638
