22
b3lypvtz=-183436.97567952
C       3.72288434      0.19191600     -0.09799344
C       2.42021413     -0.60464989     -0.03265726
C       1.17315063      0.27849729     -0.08624102
C      -0.13112786     -0.51025766     -0.02833869
N      -1.29126659      0.37143639     -0.05647825
C      -2.57151562     -0.32476055     -0.02605752
C      -3.73360848      0.65662319     -0.09691603
H       4.59442404     -0.46352198     -0.05614822
H       3.79662858      0.89575595      0.73395916
H       3.78632390      0.76904762     -1.02329874
H       2.40266826     -1.19711542      0.88737425
H       2.39180106     -1.32406019     -0.85700656
H       1.19314847      0.87209893     -1.00782729
H       1.18576457      0.99463312      0.74008353
H      -0.16905002     -1.08166852      0.90477896
H      -0.14633330     -1.25390073     -0.84455153
H      -1.24779486      0.96109052     -0.88087171
H      -2.66602885     -1.06874897     -0.83554725
H      -2.62226845     -0.88643123      0.91138267
H      -3.67852915      1.37575475      0.72108275
H      -3.72003853      1.21442101     -1.03679638
H      -4.68944630      0.13384040     -0.03835756
