16
b3lypvtz=-227771.68119102
C      -1.40773733      1.24070908      0.51052731
N      -1.13922197      0.02867206     -0.25214153
C      -2.30355842     -0.84171786     -0.30559313
C       0.03162168     -0.68058783      0.20715766
C       1.34338021      0.01799804     -0.09758137
O       1.49928509      1.08789480     -0.62031928
O       2.38110661     -0.75370263      0.31631714
H      -0.55060959      1.90771161      0.46049167
H      -1.63772600      1.03059810      1.57011125
H      -2.26370717      1.75729894      0.07573108
H      -3.14504822     -0.29427170     -0.73113279
H      -2.10024917     -1.69990374     -0.94772803
H      -2.61191011     -1.21914026      0.68519527
H       0.08106699     -1.65482566     -0.28392173
H       0.02326082     -0.89329007      1.29266773
H       3.19258858     -0.26922787      0.10472775
