14
b3lypvtz=-224600.67039167
N       1.98940437      0.22979357      0.49414434
C       1.26082434      1.13326714     -0.20481582
N      -0.00095721      1.13495536     -0.45061095
C      -0.90752803      0.18274586     -0.00967656
O      -2.13045140      0.74809037      0.26549516
C      -0.82072954     -1.15592804      0.09499165
N       0.35090349     -1.91758236     -0.22479053
H       2.98893268      0.34521158      0.47830175
H       1.63008994     -0.73074787      0.51218775
H       1.82480831      1.99054825     -0.56762202
H      -2.02460132      1.68728891      0.07254737
H      -1.70373461     -1.69322130      0.41337310
H       0.52317956     -1.96389276     -1.22388878
H       0.26041644     -2.86637470      0.11022454
