10
b3lypvtz=-277106.12766635
C      -1.77632713      0.34285617      0.67963494
C      -0.96232012     -0.32990156     -0.10526402
O       0.35288742     -0.58279044      0.17917537
C       1.28077690     -0.00362824     -0.63374823
O       1.06013782      0.77565645     -1.51178302
O       2.47622932     -0.46286262     -0.24997263
F      -1.34545473     -0.93101062     -1.22980818
H      -2.82077999      0.42837747      0.42806475
H      -1.39740546      0.80361370      1.57660325
H       3.13225598     -0.04031029     -0.82034098
