16
b3lypvtz=-181152.05306776
C      -0.57897391      1.10678091      0.44338639
C      -1.26998055      0.14097850     -0.56156945
C      -0.21862033     -0.99491662     -0.70658591
C       0.33727396     -1.08641939      0.72540893
C       0.78616413      0.38877782      0.71347503
C       1.47878416      0.38558948     -0.63222028
N       0.91477136     -0.39770312     -1.46554930
H      -0.44249849      2.11107518      0.04475885
H      -1.14370532      1.19307864      1.37188162
H      -1.47558319      0.60487089     -1.52440194
H      -2.20797804     -0.25028857     -0.16731878
H      -0.58250354     -1.90457781     -1.17522964
H       1.16648624     -1.78825103      0.81172906
H      -0.41780901     -1.30957564      1.48010488
H       1.34958411      0.76980766      1.56097356
H       2.30458839      1.03077310     -0.91884302
