12
b3lypvtz=-221361.2258564
C      -2.97105142      0.36053480      0.35587782
C      -2.17821639     -0.58739011     -0.13794532
N      -0.76910485     -0.58162130     -0.12049997
N      -0.26759109      0.54340193     -0.30794175
N       1.07578746      0.60815782     -0.19939218
N       1.88101209     -0.40336017      0.18026371
N       3.07967722     -0.06171171      0.16391442
H      -2.56548142      1.26148769      0.79434616
H      -4.04453842      0.23867257      0.34570226
H      -2.57815830     -1.51859675     -0.51922801
H       1.49184543      1.50306493     -0.43136301
H       3.60597769     -0.88153070      0.47458888
