17
b3lypvtz=-220270.37345851
F      -3.07761918     -0.03414349      0.20079722
C      -1.85519365      0.34745317     -0.35436017
C      -0.75072413     -0.53762682      0.19501284
N       0.53043977     -0.15290889     -0.35500830
C       1.22096991      1.04197363      0.18114562
C       2.56255735      0.29329052      0.03129946
C       1.70782778     -0.99071671     -0.04725595
H      -1.69195923      1.39714939     -0.09966400
H      -1.92602827      0.25024967     -1.43851541
H      -0.95637590     -1.57168095     -0.09158406
H      -0.76710440     -0.49248624      1.29795054
H       0.97175337      1.23769337      1.23434078
H       1.07756349      1.95856807     -0.39277098
H       3.26966172      0.37052669      0.85307642
H       3.06518917      0.51966057     -0.90651081
H       1.63145176     -1.49180960      0.92794346
H       1.95410544     -1.73265337     -0.80853066
