11
b3lypvtz=-233895.79622806
N       2.47859423     -0.16447211     -0.00124077
N       1.36494930     -0.69673419      0.00117363
C       0.28675718      0.31101636      0.00022421
N       0.44938139      1.55957285      0.00020479
C      -1.10477859     -0.30415109     -0.00006498
N      -2.09049113      0.62169910      0.00003482
O      -1.27595469     -1.50613730      0.00016079
H       3.17578444     -0.92071183     -0.00000707
H       1.45141807      1.78117544      0.00035985
H      -3.04653339      0.31396210      0.00011649
H      -1.86026882      1.60048067      0.00008423
