21
b3lypvtz=-193499.9587547
C       1.85223105     -1.20057223     -0.07931393
N       0.83276856     -0.43075470     -0.78158574
C      -0.01637828      0.49464076      0.00089042
C      -0.77935568      1.35463959     -1.01307591
C       0.78209167      1.40912197      0.94725245
C      -1.00524378     -0.34514435      0.83708283
N      -1.81652426     -1.21505618     -0.01182695
H       2.60391042     -0.60347930      0.45447192
H       1.38840692     -1.87164673      0.64518984
H       2.37629767     -1.82513194     -0.80369203
H       1.25225743      0.07254839     -1.55220005
H      -1.37445272      0.72944820     -1.67485777
H      -0.08354154      1.94757308     -1.61277876
H      -1.45015568      2.04641916     -0.50229507
H       1.51848995      1.99223494      0.38991896
H       1.31115803      0.84176417      1.71407822
H       0.11806433      2.10991635      1.45647692
H      -1.66724932      0.33945373      1.37357029
H      -0.43363748     -0.88793124      1.60411589
H      -1.19904450     -1.75558831     -0.60750352
H      -2.35745178     -1.86210735      0.54748099
