16
b3lypvtz=-227774.20657779
C      -0.43152795     -0.64367402     -0.13848898
C       0.36224855      0.63442570      0.14698618
N       1.80480638      0.42997467      0.12703722
C       2.50190138     -0.00694644      1.20338540
O       2.02437076     -0.25256653      2.29276774
C      -1.93070471     -0.40624157     -0.15723576
O      -2.22945051      0.48006916     -1.23791666
H      -0.12796299     -1.05859752     -1.10321585
H      -0.19906898     -1.38618830      0.62725541
H       0.10038569      1.01449429      1.13483619
H       0.11363686      1.39985305     -0.58600115
H       2.30592217      0.56194242     -0.73513273
H       3.58097373     -0.11097343      0.98900331
H      -2.45275277     -1.36104533     -0.28464320
H      -2.25339762      0.02607692      0.79806398
H      -3.16938002      0.67939691     -1.22624552
