16
b3lypvtz=-202042.00902193
C      -2.07874489      0.49504381      0.43205425
N      -0.88628630      0.44889783     -0.40261084
C      -0.75879871     -0.67555215     -1.31456592
C       0.09608385     -0.58680262     -0.09207079
C       1.54429747     -0.21818164     -0.15062170
N       2.37902699     -0.98574002      0.43677458
N       1.80427512      0.90804112     -0.89989462
H      -2.88252193      0.98668272     -0.11750651
H      -2.42625955     -0.50113023      0.73823143
H      -1.86895044      1.07833543      1.32913121
H      -0.33511527     -0.45352769     -2.28557509
H      -1.54127985     -1.42806968     -1.30765147
H      -0.12899532     -1.28407673      0.70595303
H       3.33802193     -0.65820234      0.32105942
H       1.02935797      1.55030655     -0.98682073
H       2.71588893      1.32397565     -0.80952477
