16
b3lypvtz=-181138.22391985
C      -1.60884569     -0.24509504      1.06999699
C      -0.49107816     -0.10573081      0.06478078
C      -0.50725919      1.02817444     -0.94862650
C       0.58434880      0.99255229      0.07890371
N       1.83673642      0.38503665     -0.32029066
C       1.58278111     -0.97953020     -0.52538083
C       0.29379271     -1.30264939     -0.34996471
H      -2.44827235     -0.80287569      0.64609494
H      -1.98800607      0.73133655      1.37650703
H      -1.27390621     -0.77324733      1.96532356
H      -0.25449391      0.80924950     -1.97756311
H      -1.26202394      1.79215657     -0.81334814
H       0.63737973      1.76523843      0.83327589
H       2.63979529      0.61038585      0.24792239
H       2.38972189     -1.62219692     -0.84538345
H      -0.13077044     -2.28270491     -0.50224790
