15
b3lypvtz=-212100.51948569
C      -2.12462975     -0.90061168      0.42246077
N      -1.01262671     -0.79962932     -0.53046004
C       0.17788524     -0.19697543     -0.09463970
C       0.12023367      1.24563859      0.24366693
N      -0.72988405      2.08570496     -0.18824122
N       1.24898216     -0.90462262     -0.08044620
N       2.45613148     -0.27979954      0.19353857
H      -1.89658663     -1.54923576      1.27616616
H      -2.38067115      0.08587120      0.80386416
H      -2.99742915     -1.29685456     -0.09514021
H      -0.79082192     -1.70098663     -0.93290399
H       0.88131426      1.59620536      0.94056748
H      -1.36609088      1.62116818     -0.84280515
H       3.20251074     -0.90722476     -0.06475809
H       2.58601969      0.61274603     -0.26975347
