14
b3lypvtz=-180351.71252493
C       3.25026600      0.84774106     -0.09887246
C       2.58580182     -0.26817812      0.20915840
C       1.18421109     -0.44386299      0.06720780
C      -0.00181048     -0.62473144     -0.04072509
C      -1.43936444     -0.83809329     -0.16477276
N      -2.14906143      0.40959785     -0.45623891
C      -3.04179701      0.76721843      0.35760807
H       4.32086065      0.90934403      0.03746092
H       2.74400141      1.71903833     -0.49138256
H       3.13225291     -1.12113217      0.59992888
H      -1.81997911     -1.32848348      0.74390141
H      -1.62594286     -1.51925370     -1.00139151
H      -3.30102245      0.20336645      1.26258798
H      -3.59666309      1.68315406      0.16756281
