12
b3lypvtz=-226240.25667565
O       2.31835212      0.40654732     -0.45104837
C       1.63019504     -0.48067082     -0.02090567
C       0.28173416     -0.26772609      0.65440644
C      -0.35540091      1.11021910      0.39238087
O      -1.58059782      0.78546415     -0.32555954
C      -1.62226621     -0.56190127     -0.38118078
N      -0.68786208     -1.24855107      0.12718213
H       1.93787605     -1.54108846     -0.08482485
H       0.44110226     -0.46142922      1.72118157
H       0.26554317      1.74259049     -0.23860509
H      -0.63025287      1.64432257      1.29930386
H      -2.49127690     -0.96895670     -0.88093457
