15
b3lypvtz=-191219.39659333
C      -3.27605166     -0.76169175     -0.00160557
C      -2.34663992      0.19720702      0.00145555
N      -0.98815338     -0.07049390     -0.00173913
C      -0.17483058      0.92578140      0.00355188
C       1.26069770      0.80488952      0.00670914
C       1.89274141     -0.39089638      0.01138527
N       3.23661093     -0.59271232     -0.03062074
H      -4.32788223     -0.51505161      0.00106299
H      -2.99322631     -1.80542950     -0.00717983
H      -2.65168011      1.24813382      0.00643064
H      -0.56320239      1.95365368      0.00913214
H       1.83609941      1.72349393      0.00190451
H       1.29210135     -1.29231164      0.01738896
H       3.86421598      0.18249539      0.09727148
H       3.60648079     -1.50087266      0.18063369
