16
b3lypvtz=-227753.02431152
C      -1.69141470      0.20141842     -0.61814553
C      -0.66506603     -0.03260581      0.48942149
O      -0.95299741     -1.24268052      1.21610975
C       0.73505677     -0.18439512     -0.05343130
N       0.98088145     -1.41809768     -0.67768962
C       1.61526788      0.81932269     -0.03490722
O       1.25271524      2.09532043      0.37528795
H      -2.69988285      0.26529164     -0.19923757
H      -1.66060889     -0.61087726     -1.34390180
H      -1.48427977      1.13994814     -1.13309720
H      -0.67128558      0.81663027      1.17494220
H      -1.89794715     -1.26988375      1.39078573
H       0.60710658     -2.18581478     -0.13619410
H       1.95118248     -1.57442854     -0.90854582
H       2.61573637      0.71317515     -0.44385224
H       1.96543562      2.46787673      0.90255527
