17
b3lypvtz=-191972.48873502
C       1.24213009      0.94535381     -0.31881495
N       0.18408655      1.62542973     -0.19739494
C      -0.98132315      1.07049306      0.49503961
C      -1.63578069     -0.12218699     -0.20739610
C      -0.67370698     -1.31727611     -0.43513733
N       0.48038336     -1.38129961      0.45283225
C       1.56655081     -0.48069559      0.09910659
H       2.07692648      1.43969691     -0.82733118
H      -1.71763711      1.87068376      0.58096734
H      -0.70997067      0.79616584      1.51986060
H      -2.48632561     -0.43602649      0.40461314
H      -2.04877377      0.20048066     -1.16596264
H      -0.28478299     -1.28916755     -1.45473923
H      -1.23325464     -2.25170862     -0.35262268
H       0.21364071     -1.28086601      1.42138317
H       2.28467550     -0.44224518      0.92544002
H       2.12554910     -0.91784761     -0.73915368
