13
b3lypvtz=-237044.84314787
C      -1.19420601      0.73388981     -0.02574592
C      -1.50499841     -0.75911148     -0.15349479
O      -0.24608830     -1.40872328      0.10720624
C       0.74234393     -0.50509040     -0.11757570
N       1.96353299     -0.85825293     -0.02685045
O       2.77378508      0.30897882     -0.25391551
N       0.20548354      0.72421528     -0.43230323
H      -1.80530771      1.34160464     -0.69213383
H      -1.33269788      1.08555158      1.00260068
H      -2.22947072     -1.12323096      0.57041168
H      -1.83288773     -1.01485353     -1.16349152
H       3.65760035     -0.04308268     -0.12247329
H       0.80291090      1.51810513     -0.26555050
