15
b3lypvtz=-214523.50670679
C       3.50585915     -0.37521140     -0.00014114
C       2.26552760      0.50747985      0.00017465
N       1.05174305     -0.30671475      0.00033802
C      -0.05827728      0.29210780     -0.00001599
N      -1.26175519     -0.41141485      0.00021997
C      -2.32097371      0.27464808     -0.00002779
O      -3.52040439     -0.33213205      0.00014861
H       4.41412423      0.23028030     -0.00022565
H       3.51776644     -1.01767143     -0.88107398
H       3.51805344     -1.01786615      0.88064496
H       2.27800025      1.16179747      0.87979037
H       2.27769660      1.16206029     -0.87925263
H      -0.13375864      1.39559850     -0.00037166
H      -2.35109426      1.37132077     -0.00048292
H      -4.22079928      0.32869957     -0.00009483
