13
b3lypvtz=-237026.36453127
N      -0.53749332     -1.57845272      0.51377295
C      -0.61963023     -0.20888842      0.34933692
N      -1.43473186      0.46270437      1.07345881
O      -1.27126489      1.86343126      0.87308754
C       0.31182824      0.38100324     -0.65249367
C       1.73928740      0.03074235     -0.65735089
O       0.84657871     -0.53934101     -1.61732305
H      -0.33780633     -2.08227646     -0.33728431
H      -1.28019537     -1.97326154      1.06993098
H      -1.99261589      2.22046394      1.39790335
H       0.01007934      1.34051231     -1.04779865
H       2.11226910     -0.65954431      0.09057120
H       2.45369510      0.74280699     -1.05581117
