15
b3lypvtz=-216917.62795244
C       2.34272629     -0.70213230     -0.00723576
C       1.12581085     -0.62306417     -0.52624760
C      -0.00000073      0.23883835      0.00001014
O      -0.51696320      1.04722920     -1.04457862
O       0.51695504      1.04717075      1.04464740
C      -1.12580509     -0.62310526      0.52621600
C      -2.34272318     -0.70214374      0.00720583
H       2.61689783     -0.13752034      0.87279250
H       3.09790556     -1.33562619     -0.45380378
H       0.85216235     -1.19680880     -1.40405663
H       0.22413123      1.54312797     -1.41078105
H      -0.22414562      1.54303038      1.41089018
H      -0.85214918     -1.19690793      1.40398482
H      -3.09789717     -1.33567082      0.45373570
H      -2.61690197     -0.13747409     -0.87278316
