14
b3lypvtz=-203651.51766613
C      -1.46964459     -0.59276527      0.17957256
C      -0.13024803     -0.79004115     -0.58198584
C      -0.22520391      0.70313784     -1.02008686
C      -0.58605027      0.64345596      0.49168846
N       0.55193481     -0.33655871      0.68550485
C       1.88114963     -0.03511170      0.80613153
O       2.78172419     -0.60458332      0.22785446
H      -2.35062536     -0.41297475     -0.43167452
H      -1.65377805     -1.27090870      1.00859897
H       0.22390527     -1.64796922     -1.14322866
H      -1.02922155      0.96324361     -1.70806582
H       0.71426525      1.18567590     -1.27986788
H      -0.76989771      1.45567248      1.19071661
H       2.06169031      0.73972703      1.57484214
