19
b3lypvtz=-171820.39105701
C       1.35203346      1.48574928     -0.02981930
C       0.63159666      0.15268900     -0.09960033
C      -0.80609868      0.27877924     -0.52503039
C      -1.87309224     -0.72833211     -0.19867816
C      -1.89079070      0.62598971      0.46216426
C       1.04941423     -0.90845842      0.88455148
C       1.42329733     -1.04121939     -0.57151782
H       2.39879108      1.35779856      0.25041214
H       1.32617107      1.99437674     -0.99717645
H       0.88454408      2.14543709      0.70487461
H      -0.91116791      0.74515431     -1.49967802
H      -2.61561836     -0.93765065     -0.95628923
H      -1.62025819     -1.58200623      0.41426206
H      -2.65455447      1.33428003      0.17213716
H      -1.61370672      0.66875600      1.50707909
H       1.83060448     -0.65417195      1.58847778
H       0.31030017     -1.59106569      1.27948719
H       0.90467710     -1.79240796     -1.15169765
H       2.45841863     -0.89437255     -0.85029042
