13
b3lypvtz=-242074.13874744
C      -0.13876716      1.37897573      0.42840492
C      -0.02312825     -0.11351070      0.28987817
C       1.14699436     -0.72764184      0.50236149
O       2.29642206     -0.13158841      0.84464714
F       1.29617193     -2.05961256      0.38989648
C      -1.19372657     -0.90947367     -0.07976450
N      -2.37350276     -0.48689056     -0.31508090
H       0.80993296      1.83006004      0.70728221
H      -0.87513001      1.64323632      1.19150223
H      -0.46491660      1.83305796     -0.51064711
H       2.98530339     -0.80107070      0.93586515
H      -1.03309655     -1.98338435     -0.16155775
H      -2.43255678      0.52784274     -0.21549156
