17
b3lypvtz=-220275.17893862
C       1.85247299      0.62192192     -0.38440931
C       0.95015189     -0.18669455      0.55294860
C      -0.52319312     -0.18788646      0.18701065
C      -1.02690269     -1.19758214     -0.77461578
N      -1.36467920     -1.30776527      0.65478371
C      -1.26482843      1.12122474      0.29015487
F      -0.87794513      2.00730154     -0.72255010
H       1.77652522      0.25863919     -1.41044329
H       1.58537592      1.67706720     -0.38970095
H       2.89483525      0.53626062     -0.07349942
H       1.05443445      0.19007253      1.57614767
H       1.29437444     -1.22529563      0.57243108
H      -0.30794035     -1.89382684     -1.19024414
H      -1.85984337     -0.96440220     -1.42613187
H      -0.78332172     -2.01118756      1.09891739
H      -1.06333026      1.61302702      1.24549311
H      -2.33618588      0.94912587      0.19370774
