16
b3lypvtz=-227758.55339162
C      -1.40520357     -1.53861157      0.06122758
C      -0.75882396     -0.18215755      0.28818783
C      -1.55805178      0.96668451     -0.30821056
O      -0.97815295      2.22855904     -0.03752633
O       0.54150866     -0.13120563     -0.35101003
C       1.61844515     -0.53188043      0.37224276
N       2.78680065     -0.64713713     -0.07736438
H      -2.38673105     -1.57784033      0.53664587
H      -0.79415291     -2.33664036      0.48345087
H      -1.52784522     -1.73264999     -1.00504637
H      -0.62081649      0.00953334      1.35620378
H      -1.67220734      0.80004963     -1.38657274
H      -2.55360003      0.97977568      0.13670926
H      -0.09262399      2.22844967     -0.41686119
H       1.40421661     -0.74330688      1.42012047
H       2.82326023     -0.42117800     -1.07214781
