14
b3lypvtz=-203669.0169789
C      -3.09288609     -0.85947985      0.00010294
C      -2.04461940     -0.27289821      0.00006507
C      -0.76284677      0.42108375      0.00005432
O      -0.70934580      1.63167825      0.00008327
C       0.46245845     -0.46898798      0.00000853
C       1.79180123      0.29380725      0.00002037
N       2.98974262     -0.54365564     -0.00002291
H      -4.02850305     -1.36281445      0.00012270
H       0.39233815     -1.13188026      0.87008536
H       0.39231811     -1.13181696     -0.87011517
H       1.83102366      0.95058712     -0.86963353
H       1.83104284      0.95052696      0.86971908
H       3.01280510     -1.14666389      0.81409519
H       3.01279795     -1.14658908     -0.81419722
