17
b3lypvtz=-217671.06561339
C      -1.76581291      0.88425658      0.35458102
C      -1.16524534     -0.48334519      0.57558906
C      -0.98714681     -1.43231983     -0.59252601
C       0.21151802     -0.83861635      0.06639641
O       0.93508909      0.09884920     -0.69344828
C       1.80451877      0.90281050      0.06815509
O       2.91677610      0.19765925      0.56465385
H      -1.52046798      1.56355240      1.17423058
H      -2.85431467      0.82508722      0.29021131
H      -1.39894011      1.32929135     -0.56994893
H      -1.43166983     -0.94629371      1.51894075
H      -1.22999217     -1.04093799     -1.57177062
H      -1.18587484     -2.48723117     -0.46312003
H       0.83599407     -1.47515588      0.68134755
H       1.29991072      1.30736813      0.94836808
H       2.10515357      1.71145166     -0.60217819
H       3.43050433     -0.11642615     -0.18758164
