12
b3lypvtz=-202890.14108161
C       2.82928486      0.02091491     -0.33263643
C       1.64043805     -0.11852963     -0.40679113
C       0.20219839     -0.25116332     -0.50895515
C      -0.69736214      0.98845019     -0.20659570
O      -0.70245493      2.12369006     -0.55605824
C      -1.53673418      0.12268602      0.73183407
N      -0.50012344     -0.93549026      0.61856643
H       3.88122859      0.14189820     -0.25892808
H      -0.06798888     -0.64043640     -1.49987627
H      -2.51498567     -0.11190696      0.29717647
H      -1.68067364      0.51274184      1.74079796
H      -0.85282702     -1.85285467      0.38146607
