13
b3lypvtz=-213714.12309984
C       0.30480318      1.48983960      1.05877167
C       0.53024462      0.41907765      0.29628962
C      -0.38461933     -0.03442259     -0.78799264
C      -1.68488731     -0.65238066     -0.49321371
O      -1.59800316      0.70268856     -0.94257375
N       1.73108550     -0.29794383      0.55236054
N       1.88651946     -1.30383975     -0.16740551
H       1.01584003      1.75667152      1.82730358
H      -0.57982905      2.09281980      0.91869894
H       0.10148453     -0.31640468     -1.71488863
H      -2.11661974     -1.35079324     -1.20231164
H      -1.98576207     -0.77642045      0.54169740
H       2.77974334     -1.72889196      0.11326415
