13
b3lypvtz=-237047.1067126
C      -2.50589794     -0.21587277     -0.25511269
C      -1.35964841     -0.05579438      0.40387107
N      -0.10887295      0.00301738     -0.19799884
C       1.08362850      0.16441382      0.43761882
N       2.23769023      0.21837550     -0.12003551
O       2.08683626      0.08129837     -1.53829819
O       1.00687897      0.27468856      1.78128264
H      -2.54580926     -0.31441451     -1.33231946
H      -3.43828213     -0.25115843      0.28572286
H      -1.33182503      0.04097458      1.47881370
H      -0.03374883     -0.07754141     -1.20005941
H       2.99598732      0.13521297     -1.84280875
H       1.91306328      0.38287278      2.09932375
