17
b3lypvtz=-191978.90163711
C       0.43100572      1.89597015     -0.05285339
C       0.30315167      0.42036047      0.35584489
C       1.57171535     -0.26030497      0.04336773
N       2.58291373     -0.75863253     -0.18508626
N      -0.80828680     -0.27103587     -0.30712383
C      -0.88481751     -1.67844502      0.07491027
C      -2.08811309      0.38941218     -0.08035933
H       1.35263651      2.31157874      0.35103461
H       0.45406049      1.98331991     -1.13844612
H      -0.39962930      2.48055163      0.33611741
H       0.19443400      0.37504489      1.45584329
H       0.05126297     -2.18486751     -0.15227093
H      -1.10359855     -1.81709052      1.14701903
H      -1.67662987     -2.15989151     -0.49759531
H      -2.86901028     -0.18832965     -0.57273862
H      -2.09732543      1.38762059     -0.51145430
H      -2.34860060      0.46723101      0.98943586
