17
b3lypvtz=-191981.16082182
C      -1.50579640     -1.38705090      0.12096507
C      -0.55154454     -0.41022573     -0.53957103
C      -0.93844993      1.09794052     -0.58177998
C       0.40835674      1.34350651      0.10660749
N       1.17207500      2.30456401      0.42014981
N       0.61501818     -0.00974384      0.26282597
C       1.85272418     -0.70540318      0.50465469
H      -1.81768030     -1.01926704      1.09984613
H      -1.03796063     -2.36416071      0.25756478
H      -2.39486121     -1.53045720     -0.49655075
H      -0.25745042     -0.77940604     -1.53016363
H      -1.03281885      1.53741226     -1.57286957
H      -1.80727634      1.35800828      0.02186329
H       0.74484568      3.19913651      0.20003607
H       2.35726741     -0.98290059     -0.42933533
H       1.68444576     -1.61014221      1.09119440
H       2.50910568     -0.04181063      1.06456260
