10
b3lypvtz=-225478.41864577
N      -3.02739752     -0.70892560     -0.49108607
C      -1.93682977     -0.35478872     -0.37296482
C      -0.60411316      0.14463276     -0.19994418
O      -0.49560896      1.38819573      0.33163541
C       0.46881914     -0.58797635     -0.54915927
C       1.85295520     -0.13103341     -0.39696089
O       2.80216468     -0.81070204     -0.72058387
H      -1.36609911      1.75700123      0.51809951
H       0.31473133     -1.57201197     -0.96733443
H       1.99117817      0.87560836      0.03249861
