17
b3lypvtz=-215259.03132543
C      -2.28529511     -1.32530423      0.03022958
C      -1.75091336      0.03006965     -0.43127674
C      -0.57443927      0.58755734      0.39264354
N      -0.33024448      1.97320733      0.00071931
C       0.63051815     -0.32311866      0.32481604
N       1.73793418      0.09621703     -0.12610774
O       2.72118195     -0.91144657     -0.10333270
H      -3.16654161     -1.60541033     -0.54816061
H      -1.55276666     -2.12454702     -0.09028530
H      -2.57865780     -1.29705257      1.08216167
H      -1.44304939     -0.02897317     -1.48006763
H      -2.54368882      0.77806065     -0.38005784
H      -0.89618192      0.59949902      1.44195526
H       0.45524193      2.34170384      0.52584003
H      -0.03263732      1.99824938     -0.96953684
H       0.53906646     -1.35047457      0.67695192
H       3.49388707     -0.46054012     -0.45807397
