12
b3lypvtz=-252149.08424281
C      -2.30959841     -0.37010600     -0.12442982
C      -1.00827840     -0.61965498     -0.22752509
N      -0.00595563      0.34483505     -0.23807996
C       1.37552666      0.26624416     -0.33533819
N       2.18281310      1.24781805     -0.33174287
O       1.84071359     -0.99055096     -0.44036945
F      -0.56102417     -1.86894352     -0.33222210
H      -2.67887881      0.63958591     -0.03901701
H      -3.00990651     -1.18825046     -0.12589377
H      -0.35398175      1.28473443     -0.15937367
H       1.72711196      2.14957618     -0.24818235
H       2.80145837     -0.89528787     -0.49898250
