16
b3lypvtz=-204420.97034149
N      -1.92661874      0.84197225     -0.54615275
C      -1.23798764     -0.40272950     -0.32009704
C      -0.88754277     -0.75868449      1.11704210
C       0.17473665     -0.34206641      0.16171685
C       1.13480720      0.83457381      0.19138965
C       2.15197556     -0.18100514     -0.36401386
O       1.17296382     -1.25343382     -0.31434330
H      -2.91539079      0.75336150     -0.34259144
H      -1.84223337      1.13617934     -1.51198932
H      -1.45866785     -1.25550592     -0.96030818
H      -0.92813655     -1.80323607      1.39483226
H      -1.17604088     -0.05498800      1.88704692
H       1.36181544      1.21895080      1.18375451
H       0.87300344      1.66219084     -0.46399334
H       2.49239286      0.00104974     -1.38558901
H       3.01102362     -0.39662891      0.27339596
