15
b3lypvtz=-214530.42496109
C      -1.40224935      0.10166869      0.54591412
C      -0.90288035      0.94816492     -0.62799841
N       0.52550197      1.23641306     -0.52341804
C       1.23083685      0.21797708     -0.26609212
C       0.65641167     -1.15652319     -0.05432045
N      -0.59046407     -1.11668632      0.72434840
O       2.57691351      0.30256360     -0.15818299
H      -2.44868518     -0.16853484      0.37584871
H      -1.36774964      0.72092904      1.44805364
H      -1.45341923      1.88776615     -0.66172835
H      -1.11045087      0.42801593     -1.57142291
H       1.37692593     -1.80230300      0.44347366
H       0.46411728     -1.59857986     -1.03878226
H      -0.36353570     -1.22760008      1.70125488
H       2.80872720      1.22672882     -0.33694789
