17
b3lypvtz=-171060.98175863
C       2.27843657      0.48274620      0.30483867
C       1.02803505      0.12783235      0.06865986
C       0.04138595     -0.88650791      0.62354391
C      -1.13995885      0.02059920      1.03401104
C      -1.17543906      0.97149705     -0.21040633
C      -0.00504024      0.36966521     -1.01978495
C      -0.28754854     -1.16190768     -0.88009353
H       2.79255787      1.19485205     -0.32865835
H       2.83378457      0.07263276      1.13918608
H       0.34108842     -1.67542523      1.30817482
H      -2.06416017     -0.54512922      1.15652887
H      -0.94319165      0.55612498      1.96211665
H      -0.99832690      2.01291434      0.05577277
H      -2.11845363      0.91510496     -0.75512784
H       0.24863883      0.83070540     -1.97057537
H       0.46335437     -1.77645460     -1.37105362
H      -1.29516260     -1.50924986     -1.11713271
