12
b3lypvtz=-223797.56278935
C      -3.04644764     -0.53106305      0.00003126
N      -1.78328226     -0.57712705      0.00001860
O      -1.27067375      0.75446829      0.00000347
C       0.07334182      0.83744463     -0.00001097
N       0.88143976     -0.13162171     -0.00000818
C       2.24631644      0.19610047     -0.00001523
N       3.18715466     -0.64783677     -0.00000090
H      -3.61537336      0.39486509     -0.00001282
H      -3.55391257     -1.48698496      0.00000669
H       0.34389873      1.89614948     -0.00001444
H       2.50369521      1.26147178      0.00000356
H       2.79652896     -1.59254519     -0.00000204
