17
b3lypvtz=-240979.07616887
O      -3.09924013     -1.55054134      0.17698768
C      -2.12113929     -0.65180775     -0.32874122
C      -0.86994760     -0.64017825      0.53789843
O       0.06043684      0.25761345     -0.03518176
C       1.29620177      0.33304408      0.66046333
C       2.21742815      1.22619703     -0.14407313
O       2.48422979      0.69298099     -1.43078866
H      -3.47527065     -1.17952137      0.98067379
H      -2.51225278      0.36646243     -0.42413790
H      -1.86874306     -1.00451024     -1.32864967
H      -1.12547596     -0.32440868      1.56059172
H      -0.45232866     -1.65261912      0.59853421
H       1.73392360     -0.66833402      0.75713920
H       1.14717661      0.74619392      1.66751720
H       1.77679574      2.22818071     -0.21544424
H       3.17709643      1.31450724      0.36687452
H       1.63090918      0.50664093     -1.83776350
