18
b3lypvtz=-181880.96008443
C       0.26682205      1.90767867      0.43628648
C       0.06553220      0.49593832     -0.05563196
C       1.27593993     -0.21647398     -0.70702380
C       1.08354715     -1.33879922      0.34175876
N      -0.05739203     -0.61765115      0.98875815
C      -1.38032192     -1.00645864      0.40662540
C      -1.32018351      0.13070206     -0.64212997
H       0.34183779      2.60025978     -0.40709778
H      -0.56809069      2.22461822      1.06388353
H       1.18227111      1.98789108      1.02536430
H       1.14518320     -0.50371428     -1.75038088
H       2.21333089      0.33130787     -0.61420720
H       0.81191395     -2.31873088     -0.05762466
H       1.91976106     -1.47043186      1.02899288
H      -1.40042461     -2.02209756      0.00472347
H      -2.18534336     -0.91261890      1.13595416
H      -1.31994788     -0.17740852     -1.68771676
H      -2.07443535      0.90598898     -0.51053411
