18
b3lypvtz=-205217.54016734
C      -1.45782361     -1.12675017      0.15218539
C      -0.69355313      0.10387702     -0.36867406
C      -1.29496999      1.38622310      0.21247424
C       0.79606640     -0.02842846     -0.14782764
N       1.52294420     -1.09363164     -0.80209374
C       1.54544129      0.78161134      0.60816751
O       2.88370994      0.63201705      0.76289255
H      -1.07427611     -2.05414120     -0.27623505
H      -2.51701077     -1.06311784     -0.10452084
H      -1.37577257     -1.19712284      1.23909237
H      -0.84780337      0.13686207     -1.45693722
H      -1.21641542      1.40357114      1.30175906
H      -2.35432431      1.45331037     -0.03937637
H      -0.80014819      2.27642743     -0.17769838
H       1.37027660     -1.09100880     -1.80487996
H       1.24962852     -2.00874741     -0.46215977
H       1.15364893      1.62298269      1.15894834
H       3.11038159     -0.13393385      0.20478357
