12
b3lypvtz=-223827.04201726
O      -2.06232381     -0.82677376     -0.31202888
C      -1.30840739      0.35913645     -0.13261504
C       0.16351002      0.09799624     -0.05084947
C       0.88989427     -0.99914553      0.34569554
N       2.21738181     -0.71661940      0.23000982
N       2.36151810      0.49253737     -0.21149944
N       1.12201097      0.99438536     -0.39003459
H       1.01747171      1.93398976     -0.73608246
H      -1.75645331     -1.26742736     -1.11194971
H      -1.51218100      1.09113918     -0.92501469
H      -1.66987121      0.79240992      0.80211002
H       0.53724983     -1.95152823      0.69825890
