16
b3lypvtz=-204466.89973027
C       2.05956000     -0.13209998     -0.48025781
C       0.57043098      0.17111233     -0.53531295
N       0.09082401      1.00914794      0.56413294
C      -1.35735098      0.79018932      0.68312459
C      -1.47792142     -0.72480426      0.51349601
C      -0.31731903     -1.07175748     -0.41185182
O      -0.12589159     -2.12479507     -0.96181403
H       2.31722905     -0.86701466     -1.24279249
H       2.32635211     -0.53117075      0.49840546
H       2.64935932      0.76900572     -0.65510367
H       0.32692128      0.59592014     -1.52752796
H       0.32806749      1.98472021      0.44544561
H      -1.93584493      1.29982667     -0.10259961
H      -1.71822872      1.14548584      1.64773899
H      -1.31111879     -1.24250937      1.46144821
H      -2.42486878     -1.07125660      0.10366853
