18
b3lypvtz=-181912.48813706
C       2.58616765     -0.00065896     -0.31223446
N       1.34338194      0.00225163     -0.51828092
C       0.44751972     -0.00432763      0.62976950
C      -0.51368753     -1.20178710      0.52723285
C      -1.58999724     -0.77227833     -0.49239563
C      -1.57718570      0.78162638     -0.49496476
C      -0.51222831      1.19505850      0.54136094
H       3.03126613     -0.00798269      0.69162992
H       3.27176894      0.00414096     -1.15721500
H       1.01240001     -0.01049391      1.57233138
H      -0.95854532     -1.36568936      1.51163408
H       0.00201699     -2.11909945      0.24388707
H      -2.56823106     -1.17533211     -0.22927784
H      -1.34419942     -1.15188001     -1.48310172
H      -1.30348655      1.15245804     -1.48169724
H      -2.55316845      1.20308835     -0.25336404
H      -0.96631106      1.34035617      1.52459774
H       0.00492726      2.11787451      0.27909412
