18
b3lypvtz=-181906.35528616
C      -1.30268812     -0.79029562      0.46202474
C      -1.56454846      0.58725529     -0.15206619
C      -0.35095990      1.52053104     -0.02002683
C       0.97127124      0.83048559     -0.31766059
N       1.54830694      0.02235356      0.77619329
C       1.06094776     -0.65015191     -0.43690979
C      -0.17233786     -1.51176144     -0.28148931
H      -2.20823226     -1.39943349      0.42426121
H      -1.03423959     -0.67950189      1.51484361
H      -1.80867838      0.45839316     -1.21204558
H      -2.43630558      1.05388278      0.31148936
H      -0.47091265      2.37348840     -0.69202623
H      -0.30399836      1.92397843      0.99467951
H       1.67444248      1.40625816     -0.90997839
H       2.56050214      0.08204454      0.76992816
H       1.81131465     -1.04184067     -1.11700263
H       0.09335014     -2.44027749      0.23176910
H      -0.52011521     -1.79249642     -1.28150343
