15
b3lypvtz=-214536.44925912
C      -2.84232613     -0.51625535      0.00000687
C      -1.50661625      0.18561601     -0.00000397
O      -1.40350638      1.39073843     -0.00000448
C      -0.27310035     -0.70689470     -0.00000982
N       0.92523340      0.08393698     -0.00001143
C       2.19002292     -0.43557327      0.00000398
N       3.30894975      0.17190866      0.00001339
H      -2.93423246     -1.15926683     -0.87809722
H      -2.93424171     -1.15920960      0.87815230
H      -3.64313740      0.21827489     -0.00001919
H      -0.34211305     -1.36387275     -0.87740201
H      -0.34210785     -1.36387759      0.87737914
H       0.78321871      1.08378463     -0.00000770
H       2.20163315     -1.52710734      0.00000714
H       3.18794766      1.18630583      0.00000900
