14
b3lypvtz=-180359.97413896
C      -3.66764147     -0.14269328      0.00004020
C      -2.46570495     -0.22825161      0.00003381
C      -1.05904006     -0.36870952      0.00002828
C      -0.23162033      0.69642511      0.00001365
N       1.14351476      0.69958118      0.00000208
C       1.98425780     -0.39996993     -0.00000835
C       3.31681469     -0.34344106      0.00000166
H      -4.72522684     -0.06182509      0.00004462
H      -0.67137920     -1.37957781      0.00003727
H      -0.65770917      1.69081827      0.00000900
H       1.58613900      1.60278190      0.00000765
H       1.47471452     -1.35263170     -0.00002935
H       3.85526633      0.59597416      0.00002301
H       3.89791391     -1.25178061     -0.00001254
