15
b3lypvtz=-219493.94001008
C       0.05252215      1.13466242     -0.63904263
C      -0.61519098     -0.26632988     -0.39079581
C       0.78866240     -0.84401950     -0.15975954
C       1.41508018      0.47872293     -0.41798330
N       1.39290476     -0.07389689      0.95434720
C      -1.60692871     -0.41254959      0.73569878
F      -2.77316808      0.30190272      0.43261040
H      -0.10310470      1.48735589     -1.65646721
H      -0.20204699      1.92474357      0.06639609
H      -1.04822220     -0.65009089     -1.31495727
H       1.13855122     -1.83889480     -0.39578919
H       2.35205876      0.71169596     -0.90267975
H       2.30709677     -0.47842724      1.14219303
H      -1.89287726     -1.45819755      0.87851828
H      -1.20533729     -0.01667716      1.66771093
