19
b3lypvtz=-192738.78356308
C      -1.79672888     -1.50769875     -0.55508367
C      -1.15496514     -0.74932091      0.61634370
C       0.10127206     -0.00757447      0.23674390
C       0.12511205      1.30332027     -0.04821333
N      -0.98011891      2.18857107      0.00458432
N       1.23155150     -0.84806341      0.12059275
C       2.52013028     -0.27271727     -0.19974273
H      -2.66675227     -2.08012815     -0.22711977
H      -2.12054437     -0.81846467     -1.33700447
H      -1.07987239     -2.19790003     -0.99966435
H      -1.87707209     -0.06065891      1.05889238
H      -0.91402397     -1.46441497      1.41142710
H       1.05564232      1.79439249     -0.29411403
H      -0.91092483      2.92449197     -0.68366291
H      -1.87363453      1.73091546     -0.10161468
H       1.28818242     -1.50187470      0.88952962
H       3.27282751     -1.06032268     -0.19083645
H       2.49637406      0.15661379     -1.20387600
H       2.83986117      0.52001587      0.49349762
