19
b3lypvtz=-195144.62546206
C      -1.91380212     -1.13795058     -0.69592219
C      -1.34507398     -0.24151110      0.10755574
C      -2.03712659      1.04215208      0.47850911
C       0.03058554     -0.48020648      0.69708032
C       1.20406622     -0.19940755     -0.26266308
C       1.29836060      1.24791620     -0.72997380
O       2.43414761     -0.62582224      0.32955964
H      -2.88856907     -0.96907325     -1.13594870
H      -1.42653424     -2.07483234     -0.93784597
H      -1.42659194      1.91441547      0.23145082
H      -2.21259747      1.08344782      1.55778001
H      -2.99763544      1.14275975     -0.02604456
H       0.16461447      0.13589256      1.59304597
H       0.12601445     -1.52063911      1.01065609
H       1.08788627     -0.84608716     -1.13440741
H       0.41556131      1.54122025     -1.29912690
H       2.17421405      1.37466775     -1.36621097
H       1.39394921      1.92747273      0.12235702
H       2.62065110     -0.05842780      1.08544784
