18
b3lypvtz=-205203.17542754
C       3.28404974     -0.47983922      0.31550986
C       2.00502437     -0.23829156     -0.42470721
C       0.98256120      0.44785727      0.07289406
O      -0.13679308      0.73117624     -0.65160456
C      -1.30694424      1.01855637      0.10336327
C      -1.99050259     -0.21304413      0.68515531
N      -2.48767126     -1.10043174     -0.36284089
H       3.49486547     -1.54876517      0.41139046
H       4.13955513     -0.03724116     -0.20331323
H       3.25184173     -0.05496237      1.32033910
H       1.91299694     -0.63410645     -1.43005228
H       1.00262305      0.86249350      1.08001721
H      -1.06563596      1.71512365      0.91606616
H      -1.97917180      1.53156143     -0.58692918
H      -2.76570098      0.14751516      1.38032154
H      -1.26488846     -0.76850743      1.28396190
H      -2.84571322     -1.95985350      0.03419336
H      -3.25212706     -0.66721989     -0.86790987
