11
b3lypvtz=-236268.14987287
C      -2.44559943     -0.31457126      0.00002478
O      -1.42354470      0.69673734      0.00007589
C      -0.16886755      0.25578569      0.00010006
N       0.19910058     -0.99405207      0.00004917
O       1.58042894     -0.95668608      0.00009640
N       2.04027593      0.33153870     -0.00002956
C       0.98908071      1.08910650     -0.00000606
H      -3.38862691      0.22293661      0.00004164
H      -2.36095572     -0.93956908     -0.88893621
H      -2.36097417     -0.93966528      0.88891915
H       1.05749534      2.16322094     -0.00022327
