17
b3lypvtz=-191982.6033155
C      -1.41400150     -1.50498867      0.45259324
C      -1.04113233     -0.12391505     -0.02549638
N      -1.75851472      0.61941183     -0.76183301
C       0.33864254      0.37303369      0.40535016
C       0.44210251      1.90176842      0.42816939
C       1.37021373     -0.20811043     -0.54591562
N       2.29253271     -1.03662615     -0.29341309
H      -1.51095020     -1.51522212      1.54138859
H      -0.63573134     -2.22759071      0.19688147
H      -2.35621894     -1.83525762      0.01658196
H      -2.63778966      0.16079919     -1.00223041
H       0.54946500     -0.02747445      1.40191569
H      -0.29584444      2.32355525      1.11024816
H       1.43615345      2.21071819      0.75318033
H       0.24692560      2.31583474     -0.55904013
H       1.28474128      0.15460695     -1.57368753
H       2.28254730     -1.30737906      0.69328117
