12
b3lypvtz=-226252.21898288
C       2.43363255     -0.15075398      0.71671900
C       1.67023136     -0.30550644     -0.58215779
O       0.27692223     -0.66733633     -0.33332599
C      -0.57479345      0.33218801     -0.12793523
O      -0.33779138      1.50887956     -0.12710065
C      -1.92548263     -0.19662385      0.10719561
N      -3.00193030     -0.55184653      0.29954409
H       3.48535926      0.03790210      0.49519754
H       2.36834541     -1.05820328      1.31676447
H       2.05427236      0.68843518      1.29796808
H       1.68713842      0.60761388     -1.17333609
H       2.04629317     -1.13380132     -1.17733204
