19
b3lypvtz=-192740.22217248
C       0.96787917      1.55897488     -0.12852134
C       0.65831463      0.17286138      0.43510734
C       1.79359053     -0.81547943      0.25520435
N       2.90737700     -0.66665893     -0.32610381
C      -0.63398430     -0.44990883     -0.13373414
C      -1.92016082      0.28127325      0.24514609
N      -3.08559363     -0.48109673     -0.21431724
H       0.17062282      2.26392724      0.10289786
H       1.07718528      1.52957164     -1.21542174
H       1.89052845      1.96277521      0.29244998
H       0.51700445      0.26189170      1.52118680
H       1.59714433     -1.79927568      0.69252866
H       3.00618809      0.27685999     -0.70589041
H      -0.72620270     -1.48062007      0.21729531
H      -0.55099528     -0.50223059     -1.22530868
H      -1.89575140      1.30964537     -0.13912629
H      -1.98044239      0.35334052      1.33495947
H      -3.11062695     -0.51027815     -1.22753416
H      -3.94385626     -0.03233079      0.08220095
