13
b3lypvtz=-213721.38371076
C      -0.74922792     -1.15426679      0.06794323
C       0.52953776     -0.40266677     -0.35994610
C      -0.35343447      0.89190270     -0.26796362
N      -0.15018545      2.13138721     -0.19404149
C      -1.57019862      0.08168634      0.07480611
O      -1.69953139     -0.91649919     -0.96231059
N       1.65608009     -0.49824010      0.54339257
H      -0.83541426     -2.04658372      0.67161507
H       0.84472144     -0.68114286     -1.36494301
H       0.82466089      2.35890355     -0.40367002
H      -2.45918216      0.35356493      0.62512854
H       2.48710957     -0.08281409      0.14367026
H       1.47506449     -0.03523117      1.42631907
