20
b3lypvtz=-205977.43912392
C       2.31660157      0.60802824     -0.18244667
C       1.12838593     -0.21488222      0.30739141
O       1.33298948     -1.59998584     -0.00359606
C      -0.23955129      0.27404699     -0.20867811
C      -0.48111612      1.75434005      0.10074666
C      -1.37386608     -0.60899068      0.35724859
N      -2.71088423     -0.41935580     -0.20470328
H       2.29048652      1.63153713      0.19059552
H       3.24359014      0.14591865      0.15673202
H       2.33557063      0.65028921     -1.27596063
H       1.11045733     -0.19123020      1.40141369
H       1.45520200     -1.67900612     -0.95597502
H      -0.23465770      0.14569892     -1.30097890
H      -1.48031508      2.05930326     -0.21388132
H       0.22556213      2.40694526     -0.41062062
H      -0.39996474      1.94615820      1.17443079
H      -1.10052821     -1.65436985      0.22365923
H      -1.44038209     -0.44360168      1.43752529
H      -3.04248423      0.52712331     -0.06748778
H      -2.70989897     -0.59179983     -1.20341881
