18
b3lypvtz=-228505.81506668
C       1.26459976      2.02222530      0.25372714
O       0.97598547      0.83079559     -0.45037616
C      -0.05442453      0.02295899      0.11532668
C       0.22443632     -1.42188933     -0.29884060
N       1.47959294     -1.99045753      0.18272126
C      -1.43110050      0.50345160     -0.35767349
O      -2.50045802     -0.18410312      0.28602536
H       0.41094617      2.70790658      0.28831898
H       1.58234696      1.81075334      1.28197653
H       2.08030548      2.51494862     -0.27301711
H      -0.00948468      0.09343860      1.21415452
H       0.22969191     -1.45881778     -1.39181866
H      -0.60473280     -2.04543034      0.03651363
H       1.46917006     -2.07761131      1.19254923
H       2.24344904     -1.36728797     -0.05242911
H      -1.52068913      1.58595441     -0.22183126
H      -1.53681844      0.29858167     -1.42377972
H      -2.54767601      0.10600870      1.20190478
