15
b3lypvtz=-212115.53116265
C      -2.25903743      1.13199612     -0.13131754
C      -1.39771723     -0.09998162      0.04788219
N      -1.80335763     -1.28211309      0.27903620
N      -0.03942432      0.19529634     -0.02582979
N       0.86820105     -0.83018719     -0.28754154
C       2.09126455     -0.49005784     -0.15802872
N       2.57027831      0.76097047      0.19641172
H      -1.89157894      1.96453765      0.47263799
H      -2.25777868      1.45356634     -1.17598061
H      -3.28526180      0.92306199      0.16165213
H      -2.81812668     -1.29480535      0.33249268
H       0.18204064      1.08096380     -0.46513996
H       2.83603771     -1.23982388     -0.39634894
H       1.97168152      1.27577243      0.82824282
H       3.53885793      0.78665583      0.47136038
