15
b3lypvtz=-214539.321188
C       1.94784452     -1.26341477     -0.00575929
N       0.59468127     -0.74919647     -0.00476274
C       0.39774492      0.53291366     -0.00491690
N       1.41165150      1.46543197     -0.04322533
C      -0.96315638      1.04445275     -0.00846556
C      -2.02628570      0.20801577      0.00127314
O      -1.94662456     -1.11227974      0.01297030
H       1.91825689     -2.35139114     -0.01713749
H       2.51914928     -0.93762145     -0.88444643
H       2.51323720     -0.96397707      0.88830745
H       1.18370072      2.41252811      0.20365046
H       2.34047731      1.17291317      0.20467318
H      -1.13308848      2.11072353     -0.02747784
H      -3.04241521      0.58808722      0.00107081
H      -0.94788229     -1.31185552      0.00703524
