14
b3lypvtz=-203699.73213692
O       2.92317907      0.96903783      0.46641527
C       2.28747021     -0.02830006      0.19927304
C       0.82676051     -0.06733630      0.14673258
C       0.07934749     -1.12049546     -0.23041150
C      -1.37522204     -0.73075273     -0.14832940
C      -1.28846725      0.81242296     -0.05297304
N       0.05828304      1.03959462      0.50206003
H       2.78590873     -0.98446048     -0.04729412
H       0.45532924     -2.10376645     -0.46355725
H      -1.83094640     -1.15581838      0.75414141
H      -1.97401384     -1.06560943     -0.99562521
H      -2.05722577      1.24379080      0.58617735
H      -1.38101956      1.25516956     -1.05243017
H       0.49051657      1.93662355      0.33572100
