16
b3lypvtz=-227743.23682662
C      -0.84510816     -1.80127456      0.33073841
C      -0.21234325     -0.44014312      0.40477709
O       0.45091689     -0.21048094      1.61864193
C       0.40757497      0.16982595     -0.84142316
N       1.57588549      0.99913034     -0.66574108
C      -0.86151837      0.76167525     -0.23250828
O      -0.68390466      1.97695700      0.43283127
H      -1.57989760     -1.91940194      1.12908938
H      -1.34873536     -1.94745691     -0.62599637
H      -0.09117794     -2.58351651      0.44134063
H       0.19308477      0.67899297      1.90484544
H       0.32513179     -0.39044657     -1.76546027
H       2.23642943      0.57620277     -0.02466908
H       2.03821913      1.19069467     -1.54249161
H      -1.81592209      0.66825998     -0.73601298
H       0.21146495      2.27088162      0.17213869
