14
b3lypvtz=-224581.25539288
C       1.65910787     -1.40769527      0.31582958
C       1.16335298     -0.22141991     -0.01748675
O       2.01531306      0.81863437     -0.34922104
C      -0.27654784      0.12270193      0.02345002
N      -0.61296740      1.40138619      0.45488228
N      -1.14726181     -0.76409764     -0.29454021
N      -2.47662392     -0.32796888     -0.18674693
H       2.71847852     -1.60204457      0.23425475
H       1.00140459     -2.18381796      0.67112129
H       1.62766345      1.32777990     -1.07013121
H      -1.43433761      1.79417661      0.01646644
H       0.15147034      2.04550130      0.57046253
H      -3.06874026     -1.13954632     -0.29189776
H      -2.66006997      0.09595025      0.72303701
