9
b3lypvtz=-233130.68110525
C      -1.14893496     -0.12414537      0.24312132
N       0.00017858     -0.80674209      0.06813625
C       1.18476063     -0.13694876     -0.24330867
O       2.22830389     -0.70889350     -0.40648332
N       1.03926124      1.27522984     -0.34809948
N      -0.06952506      1.85092178     -0.17144507
N      -1.23713116      1.16035291      0.13879774
H      -2.03831960     -0.69628285      0.48377980
H       0.04140643     -1.81349195      0.15559136
