14
b3lypvtz=-201266.05726231
C       1.56540601      1.48467299     -0.00000086
C       0.55363231      0.38204514      0.00000788
C      -0.77869771      0.59138243      0.00000122
C      -1.81301399     -0.43966104      0.00000189
N      -3.07001611     -0.22356591      0.00000264
N       0.98022869     -0.97329243     -0.00000946
N       2.21881698     -1.11477827      0.00000834
H       2.21672001      1.41113932     -0.87232229
H       1.07455590      2.45563646     -0.00000720
H       2.21671041      1.41114447      0.87232790
H      -1.13474918      1.61702902      0.00000105
H      -1.47427428     -1.47159043     -0.00000040
H      -3.26626740      0.78116355      0.00000417
H       2.39628935     -2.12780032      0.00002412
