12
b3lypvtz=-207893.2698436
C      -3.88870214     -0.43382427      0.44018675
C      -2.72343009     -0.15524633      0.31037094
C      -1.40473361      0.15943496      0.16386804
C      -0.23894368      0.44552238      0.03376617
C       1.17246831      0.75631018     -0.11840507
C       2.04686210     -0.49342337     -0.01826845
F       3.37863977     -0.12148174     -0.17033446
H      -4.91508209     -0.67844749      0.55465631
H       1.48473196      1.46807668      0.65077903
H       1.34905732      1.23455602     -1.08577154
H       1.93696227     -0.97286790      0.95503652
H       1.80216987     -1.20860912     -0.80428758
