19
b3lypvtz=-195145.420002
C      -2.97805292     -0.44402615     -0.08984750
C      -1.49966173     -0.76980938     -0.30312654
C      -0.51389840      0.15610635      0.44462871
C      -0.60370589      1.60629240     -0.03557006
C       0.88022967     -0.41677889      0.37413713
C       1.95975012      0.17888403     -0.12325782
O       3.21736942     -0.35167662     -0.19582238
H      -3.24696981      0.53204435     -0.49514527
H      -3.23298597     -0.44416378      0.97277384
H      -3.61204992     -1.18447545     -0.58023775
H      -1.26121439     -0.74249647     -1.37088393
H      -1.31591111     -1.79842116      0.02044927
H      -0.81477048      0.14226480      1.50138395
H      -0.35916123      1.68733477     -1.09751124
H      -1.60865915      2.00282808      0.10370274
H       0.08087280      2.25005181      0.51846952
H       0.98836992     -1.42882700      0.76145318
H       1.95214098      1.17925833     -0.53233357
H       3.20654908     -1.24350601      0.17024874
