14
b3lypvtz=-203695.21849893
C      -2.38179552     -0.55237874      1.06405565
C      -1.42478914     -0.41506360     -0.06666727
N      -0.19310120     -0.13909933      0.10653541
C       0.61194359     -0.03460549     -1.02282738
C       1.92272821      0.25327723     -0.96200337
C       2.65957566      0.49073276      0.28392061
O       3.84505944      0.75005097      0.30647882
H      -3.20250341      0.16241433      0.95418185
H      -2.83608271     -1.54744159      1.05697464
H      -1.88187147     -0.38796538      2.01571444
H      -1.82993970     -0.56388035     -1.07787806
H       0.14072670     -0.19702057     -1.99538994
H       2.49966313      0.32143921     -1.87539960
H       2.07028640      0.41994055      1.21240419
