16
b3lypvtz=-181122.78886224
C      -1.33847712      0.39817004     -1.14629042
C      -0.82800038     -0.37486117      0.06888182
C       0.69495366     -0.52186727      0.05479882
C       1.29358917     -1.71602591     -0.00949010
C       1.45637484      0.68349417      0.14348605
C       2.04967666      1.72701520      0.22426757
N      -1.34647205      0.24854570      1.29047254
H      -2.42673554      0.44666113     -1.11777814
H      -0.94917926      1.41820934     -1.14847803
H      -1.02804847     -0.08209703     -2.07438062
H      -1.23621189     -1.38758869      0.03037247
H       0.70871550     -2.62473560     -0.07224543
H       2.37000158     -1.81542560     -0.00341450
H       2.59532676      2.63511391      0.28924630
H      -1.00180038     -0.23935988      2.10967013
H      -1.01371306      1.20475164      1.36088154
