12
b3lypvtz=-226195.02106763
C       2.74852959     -0.12686887      0.82933176
C       1.38088998     -0.08334912      0.34311920
C       0.24696103     -0.04438171     -0.05293945
C      -1.08597472     -0.00898018     -0.54658800
O      -1.25912639     -0.45639695     -1.80766264
N      -2.02847090      0.43272693      0.20748874
O      -3.25404551      0.36495858     -0.51119593
H       3.36442558      0.62371086      0.32988343
H       3.19625608     -1.10547721      0.64635612
H       2.78445620      0.06652874      1.90284380
H      -2.20541341     -0.37315703     -2.00483249
H      -3.88848755      0.71078596      0.12259545
