14
b3lypvtz=-227025.11906979
C      -2.65609399      0.09070870     -0.01747383
C      -1.36999942      0.13856525      0.30363401
C      -0.28794579      0.63911081     -0.60896785
N       0.74048455     -0.36430789     -0.83879703
C       2.04533899     -0.16293882     -0.53715332
O       2.53109920      0.84608988     -0.07484831
O       2.77920168     -1.27614020     -0.83008184
H      -3.40346386     -0.26470193      0.67929814
H      -3.00968590      0.41634102     -0.98920767
H      -1.04050655     -0.19764398      1.28209698
H       0.22354369      1.49516818     -0.16733463
H      -0.71949741      0.96419613     -1.55956366
H       0.47770142     -1.26688350     -1.19661041
H       3.68982339     -1.05766365     -0.59499057
