12
b3lypvtz=-249550.77148338
N       2.38158549     -0.95968865     -0.09200142
C       1.31925011     -0.07789552     -0.00041478
O       1.74626210      1.21029369      0.01985621
C       0.02414173     -0.42183042      0.00851255
O      -0.90083077      0.63511100     -0.03865443
C      -2.21166863      0.33771901     -0.01352209
O      -2.68371431     -0.76281276      0.04199952
H       2.13665749     -1.92386448      0.06964918
H       3.18190088     -0.67336558      0.45413814
H       0.97031560      1.78223147      0.06955998
H      -0.36924210     -1.42122328      0.01708934
H      -2.78229761      1.27267852     -0.05338221
