11
b3lypvtz=-233901.61341658
C       0.42348348      0.12320749      0.07133282
C      -0.84108681     -0.39235450     -0.11231595
N      -1.72853495      0.61096742     -0.25739830
N      -1.09035781      1.75609436     -0.18280023
N       0.19196618      1.46667108      0.02366318
O      -1.18991726     -1.69753599     -0.13940304
N       1.70226026     -0.40856748      0.29709514
H       0.87140207      2.20287399      0.12910690
H      -2.14694750     -1.73499925     -0.26063325
H       2.12880204     -0.76971979     -0.55144878
H       1.67893031     -1.15663734      0.98280151
