14
b3lypvtz=-180334.93624113
C       2.22011880     -0.13718193      0.29281167
C       0.90661400     -0.20416941      0.14425289
C      -0.28033373      0.32779553      0.90342752
C      -1.13325354      1.09909888     -0.12567915
C      -1.31081199     -0.26414500     -0.76367336
C      -0.03481301     -1.04319910     -0.62404333
N      -1.05282507     -0.99505607      0.50819456
H       2.88953967     -0.71857189     -0.32742635
H       2.66653983      0.49639299      1.04778276
H      -0.21093333      0.62909096      1.94293786
H      -0.65790892      1.90553007     -0.68587424
H      -2.06980498      1.44301260      0.31254150
H      -2.08634403     -0.58892927     -1.44473042
H       0.15421629     -1.94966837     -1.18052190
