20
b3lypvtz=-182664.66415256
C      -2.33391594     -0.79713016     -0.21718729
C      -1.52005661      0.49319984     -0.31683706
C      -0.05245603      0.45358426      0.10565604
N       0.65113634      1.71348198     -0.03643997
C       0.39034262     -0.36699058      1.29037061
C       0.78422236     -0.79001156     -0.10608686
C       2.22169752     -0.73513383     -0.56509093
H      -3.36596710     -0.61302691     -0.51950225
H      -2.35931916     -1.18639719      0.80164902
H      -1.94134089     -1.58000341     -0.86722795
H      -1.55584396      0.85307286     -1.35181593
H      -2.01186337      1.26737107      0.28362862
H       0.58232067      2.05705337     -0.98866185
H       0.23772882      2.41905709      0.56352349
H       1.16345036      0.06885386      1.90895265
H      -0.33777341     -0.96053780      1.82563180
H       0.23611060     -1.64373891     -0.48562075
H       2.28899757     -0.74314870     -1.65620783
H       2.77779252     -1.60007873     -0.19572405
H       2.71099111      0.16839044     -0.20658352
