11
b3lypvtz=-212965.41573708
C       3.19001564      0.72819351      0.25049623
C       2.13816080      0.14708509      0.22104065
C       0.93983949     -0.61046101      0.18757884
N      -0.20803541     -0.04414318      0.15311144
N      -1.26831203     -0.94790693      0.12387130
C      -2.38927665     -0.32048685      0.09100797
O      -2.55953871      0.99843276      0.08479645
H       4.11086567      1.25612083      0.27622498
H       1.01623276     -1.69768203      0.19181690
H      -3.31244779     -0.88448682      0.06502538
H      -1.65750377      1.37533464      0.11023699
