15
b3lypvtz=-216882.94362756
O       2.28398624      0.58315864      0.86776136
C       1.35947339     -0.48647508      0.67022526
C       0.57552971     -0.34055537     -0.60828505
C      -0.59237184      0.61880974     -0.79486500
C      -1.51267069      0.58642518      0.41776732
O      -1.58126855     -0.86725893      0.38024275
C      -0.80030334     -0.87918384     -0.82232555
H       1.79109946      1.40958625      0.85514816
H       1.96806605     -1.39058291      0.62677741
H       0.68410356     -0.59122605      1.52336595
H       1.18277955     -0.39214514     -1.50637218
H      -0.63345055      1.34012587     -1.59628796
H      -1.13301998      0.95950263      1.37237223
H      -2.49731460      1.01328706      0.22087207
H      -1.09463842     -1.56336806     -1.60619674
