12
b3lypvtz=-223824.04767383
C      -1.14294253      1.70811184     -0.00016083
N       0.00528645      1.15888834     -0.00024249
N       0.15470854     -0.21096593     -0.00002860
C       1.51059605     -0.64845492      0.00007611
N       2.54017104      0.07013120      0.00000612
C      -0.84986195     -1.16619705     -0.00000538
O      -2.03837095     -0.95536267     -0.00018561
H      -1.12751233      2.79237603     -0.00019145
H      -2.08688267      1.18194895      0.00030684
H       1.58827809     -1.73226525      0.00025848
H       2.28599103      1.05930134     -0.00015986
H      -0.42423877     -2.18238988     -0.00001833
