17
b3lypvtz=-191970.10775072
C       2.98670082     -0.57994275     -0.01816507
C       1.71337506      0.19415862      0.09948060
C       0.49000266     -0.31220482     -0.08932453
C      -0.76280716      0.44248034     -0.02732623
C      -0.72825625      1.94712097     -0.00986777
N      -1.93154762     -0.09701128     -0.01374298
N      -2.04318477     -1.47375835     -0.02835108
H       3.54985115     -0.55567582      0.91940465
H       2.80390730     -1.62228859     -0.28012107
H       3.63991585     -0.14561019     -0.78079775
H       1.81933653      1.24259316      0.35930538
H       0.41003343     -1.36062484     -0.35816444
H      -0.23824697      2.32520500      0.89154737
H      -0.17870045      2.34337417     -0.86714814
H      -1.74620809      2.32870027     -0.03186089
H      -2.98323688     -1.71980468      0.24163268
H      -1.37207862     -1.96309321      0.55463827
