19
b3lypvtz=-218437.54256353
C       3.37020948      0.31349729     -0.18247306
C       1.86664296      0.57471610     -0.08847756
C       1.10539432     -0.64917958      0.41838835
O      -0.28386799     -0.42314079      0.61692815
C      -1.07317727     -0.53879613     -0.55205931
O      -2.41281653     -0.41312398     -0.22612533
C      -2.79201292      0.89550923      0.18051969
H       3.90306270      1.19687521     -0.53591677
H       3.78634566      0.04345912      0.79070601
H       3.59034166     -0.50325462     -0.87363330
H       1.67023664      1.40684921      0.59185671
H       1.48482277      0.87265503     -1.06798058
H       1.25537967     -1.49832980     -0.26298638
H       1.49728604     -0.94537494      1.39357214
H      -0.77921210      0.22843489     -1.28669386
H      -0.94803939     -1.53463098     -0.99222149
H      -3.87089017      0.88030307      0.32000175
H      -2.30747447      1.17883300      1.11665943
H      -2.54008906      1.63263066     -0.59140959
