12
b3lypvtz=-252154.28860558
N      -1.81575325      0.30032487      0.94139869
C      -1.14468340     -0.80626765      0.44217759
C      -0.01689787     -0.77971512     -0.26562988
F       0.45943720     -1.94084966     -0.80751069
N       0.74614083      0.35187536     -0.55167927
C       1.83253834      0.74332414      0.20104310
O       2.57590096      1.64433013     -0.09780169
H      -1.28277361      1.15648519      0.95737982
H      -2.31425959      0.14353826      1.80249542
H      -1.63108789     -1.76029612      0.59247295
H       0.66255316      0.80031443     -1.45632956
H       1.92878514      0.14693615      1.12428353
