14
b3lypvtz=-203700.08007838
O       1.01915467      2.42175955      0.74856502
C       0.61568264      1.32802353      0.40880279
C       1.48171261      0.32936606     -0.24150802
C       0.99418025     -0.84525898     -0.64994741
C      -0.41313437     -1.27350203     -0.37776003
N      -0.98878848     -0.50087395      0.71084501
C      -0.85106455      0.94070823      0.54275644
H       2.50732696      0.62415250     -0.42301437
H       1.61688449     -1.53497741     -1.20853335
H      -0.42237337     -2.33168667     -0.10428788
H      -0.97995842     -1.19687625     -1.32658801
H      -1.95488133     -0.75617407      0.86345759
H      -1.36455325      1.33856728     -0.35250644
H      -1.26038786      1.45677222      1.40961867
