14
b3lypvtz=-203721.8050023
N       2.37153280     -0.52286730     -0.02096446
C       1.05560884     -0.19815247      0.00630706
C      -0.01321527     -1.03199033      0.00147561
C      -1.25275403     -0.27584831     -0.00461695
O      -2.39123585     -0.70118740     -0.00916218
C      -0.88453293      1.21963413      0.00101266
C       0.65018746      1.25755606     -0.00005319
H       3.06239397      0.18152188      0.16631042
H       2.65717294     -1.47711294      0.11083840
H       0.01707269     -2.11164686      0.00272765
H      -1.32303011      1.70135173     -0.87286742
H      -1.32119043      1.69191042      0.88111114
H       1.06179572      1.76970502      0.87417467
H       1.06107322      1.75779536     -0.88070942
