15
b3lypvtz=-219495.68516413
C       1.74116069     -0.02210828     -0.20166494
C       0.74540339     -0.94451587      0.58351205
C      -0.38993803     -0.00007095      0.16583504
C       0.55686893      0.86706391     -0.57979669
N      -0.04081164      1.32906495      0.70233527
C      -1.80435978     -0.38718315     -0.10434744
F      -2.48458761      0.67126353     -0.71444692
H       2.51648969      0.46714243      0.38654844
H       2.19014038     -0.52965340     -1.05372224
H       0.89850690     -1.03224235      1.65839813
H       0.66438303     -1.93630032      0.13957342
H       0.40678772      1.43663963     -1.48540727
H      -0.80719563      1.95333638      0.45649363
H      -1.85721742     -1.24754289     -0.77543370
H      -2.33563062     -0.62489362      0.82212323
