14
b3lypvtz=-201276.74516055
C      -1.29625772     -0.89375332      0.02762544
C      -0.57183654      0.40672403      0.03193924
N      -0.98046606     -0.22851385      1.29299819
C       0.91971259      0.47775431     -0.32349821
N       1.62606899     -0.72428542      0.10777741
C      -1.29609547      1.60922176     -0.31912397
N      -1.83515293      2.57406533     -0.64118997
H      -0.72103985     -1.76996695     -0.24492368
H      -2.34496279     -0.91651763     -0.23619422
H      -0.14221110     -0.66401978      1.67600399
H       1.01266200      0.67810284     -1.39515158
H       1.33952893      1.34124637      0.19515240
H       1.74972571     -1.38500282     -0.64667539
H       2.54032425     -0.50505487      0.47526033
