8
b3lypvtz=-224711.01746203
C       1.31719358      0.07027138     -0.12243742
C       0.12141829      0.11723922      0.01078329
C      -1.31573597      0.07476615      0.19414936
O      -1.91203817     -0.92255101      0.50016357
O      -1.87565151      1.27671307     -0.02040082
C       2.67402082      0.02365404     -0.27515157
N       3.82196368     -0.01429791     -0.40471448
H      -2.83117071      1.17922723      0.11760807
