13
b3lypvtz=-190426.72965051
C       2.45153264     -1.25393433     -0.02512936
C       1.69253048     -0.36270762      0.23396061
C       0.75172461      0.71325783      0.52640765
C      -0.59676845      0.51937940     -0.15948545
N      -1.12527109      1.32647419     -0.97977265
C      -1.35555873     -0.72754180      0.20667230
N      -2.49532869     -1.03807376     -0.24244574
H       3.12660766     -2.04077408     -0.25377047
H       0.58634586      0.76171801      1.60881032
H       1.17555119      1.67423325      0.22708181
H      -0.53600028      2.13762416     -1.16120373
H      -0.87036303     -1.39660193      0.91728263
H      -2.80510216     -0.31295332     -0.89860792
