13
b3lypvtz=-270392.69813853
C      -2.58147206     -0.46267966      0.00000086
C      -1.08541672     -0.74795726     -0.00001054
C      -0.23282269      0.49509157      0.00000044
O      -0.65655838      1.62428374      0.00000989
C       1.29393755      0.28657151      0.00000226
F       1.65976259     -0.43348612      1.10139921
F       1.65976633     -0.43351447     -1.10137465
H      -3.14522034     -1.39527848     -0.00000942
H      -2.87103838      0.11352577      0.87812320
H      -2.87104687      0.11355042     -0.87810248
H      -0.78733053     -1.34546880     -0.86753286
H      -0.78732113     -1.34549143      0.86749300
H       1.82533162      1.23776722     -0.00000892
