13
b3lypvtz=-242068.66117959
C      -2.22288167     -0.18059418     -0.02282531
C      -0.90412203     -0.40474663      0.00217048
O      -0.35384534     -1.66915347      0.03135356
C       0.10840653      0.63282119      0.01088826
F      -0.41286806      1.89619613      0.01129019
C       1.44860454      0.53972246      0.01076163
N       2.23072898     -0.59162755     -0.08861075
H      -2.60653341      0.82515772     -0.04355871
H      -2.92957260     -0.99988628     -0.02214914
H      -1.06768612     -2.31446953      0.01879620
H       1.99145287      1.47626767      0.03011081
H       1.76067266     -1.46753786      0.07341286
H       3.14048566     -0.52532268      0.33566693
