20
b3lypvtz=-182664.53895187
C      -3.09789983     -0.70127434      0.33680358
C      -2.30012442      0.08074616     -0.37889732
C      -1.23444185      0.98689972      0.18383140
N       0.13008484      0.72610572     -0.27773924
C       0.67156328     -0.58517413      0.07370222
C       2.13371202     -0.71574168     -0.35268211
C       3.07845881      0.25467942      0.35561961
H      -3.03346267     -0.73480887      1.41875279
H      -3.84758077     -1.33064657     -0.12529700
H      -2.39415453      0.08343754     -1.46305674
H      -1.24237168      0.92503602      1.27535003
H      -1.47059165      2.02378837     -0.07455581
H       0.18961746      0.86595236     -1.28043705
H       0.59963801     -0.68723407      1.16163042
H       0.09330774     -1.41749218     -0.35290438
H       2.45191548     -1.74551266     -0.16857228
H       2.19988934     -0.57146738     -1.43695074
H       4.10202635      0.14474299     -0.00650582
H       3.08667039      0.07298841      1.43295117
H       2.76669269      1.28637016      0.19745528
