18
b3lypvtz=-202826.02366332
C      -2.69407096     -0.18651486     -0.19556690
C      -1.29422704     -0.71180503      0.12170124
C      -0.17390512      0.26305157     -0.26314611
N      -0.23544735      1.57702325      0.39963488
C       1.23816518     -0.31656170     -0.06401163
N       1.54499427     -1.51859658      0.23734486
N       2.22419713      0.60485432     -0.31963484
H      -3.45306682     -0.92775842      0.05632511
H      -2.92723846      0.71903121      0.36715735
H      -2.79797880      0.04379787     -1.25865833
H      -1.21729221     -0.94584323      1.18808604
H      -1.14578131     -1.65130989     -0.41611085
H      -0.25836783      0.46747428     -1.33608589
H      -0.29237652      1.46447600      1.40654508
H      -1.05631822      2.09185714      0.10888572
H       0.72073742     -2.09769082      0.34756459
H       3.15213334      0.32537142     -0.04616641
H       1.96973029      1.56596745     -0.15683791
