17
b3lypvtz=-171079.37942024
C      -1.27417789     -0.66712725     -0.50740338
C      -1.27420573      0.66707709     -0.50740144
C      -0.08756212      1.12576641      0.32245101
C       1.18895883      0.77881965     -0.51456192
C       1.18899276     -0.77877436     -0.51455364
C      -0.08751894     -1.12576989      0.32245173
C      -0.04084785     -0.00000042      1.37857964
H      -1.91507242     -1.32107290     -1.08218523
H      -1.91512321      1.32099813     -1.08218722
H      -0.12095362      2.15033864      0.68570681
H       2.08157989      1.17413025     -0.02740215
H       1.14414848      1.20274684     -1.51670381
H       2.08162606     -1.17403819     -0.02737799
H       1.14421390     -1.20271550     -1.51669109
H      -0.12087283     -2.15034295      0.68570840
H      -0.90905696     -0.00001677      2.03671387
H       0.87506466      0.00001722      1.97334139
