13
b3lypvtz=-239489.56643119
O       2.09605019      1.41125421      0.34895979
C       1.02195653      0.91457031      0.16171003
O       0.00344282      1.55499555     -0.45776132
C      -1.12556293      0.66842211     -0.64099013
C      -0.91597064     -0.47296619      0.36020988
C       0.59521651     -0.52099585      0.50217309
O       1.13398618     -1.40173747     -0.48093068
H      -2.02775419      1.24910651     -0.46554205
H      -1.11550549      0.31916876     -1.67353501
H      -1.36886457     -0.22328704      1.32014851
H      -1.32344251     -1.42164552      0.01708027
H       0.93505595     -0.79119163      1.50388450
H       2.09139213     -1.28579374     -0.49540689
