11
b3lypvtz=-262023.56588168
O      -2.51379956     -0.22784409      0.81205554
C      -1.52950428     -0.59416393      0.17775290
C      -0.31276709      0.15913578      0.23126758
O      -0.30918849      1.29480483      1.01825312
C       0.84318236     -0.12756604     -0.41387291
O       1.93426992      0.64426114     -0.29927980
O       1.00776529     -1.18711803     -1.21275108
H      -1.54086024     -1.49949446     -0.44658175
H      -1.20595398      1.33554969      1.39217411
H       1.71640998      1.37945920      0.29500091
H       1.91064609     -1.17702408     -1.55421862
