15
b3lypvtz=-214509.90599743
N      -2.27044078     -0.56258874     -0.03639313
C      -1.01671302     -0.52403739     -0.15222630
C       0.16617766     -1.45485722      0.08547630
C       1.00795570     -0.17108476      0.36574185
O       2.34034195     -0.09833190     -0.07232994
C      -0.09250971      0.68262555     -0.33362162
N      -0.40851988      1.99384154      0.17581301
H      -2.59731566     -1.50373528      0.18889031
H       0.48869036     -1.95076716     -0.83406793
H       0.07895302     -2.19668987      0.87774452
H       1.03024378      0.04783371      1.43362367
H       2.35989627     -0.17150669     -1.03211593
H       0.17266183      0.76875576     -1.39411352
H      -0.88817908      1.91678107      1.06588154
H      -1.04462444      2.47553536     -0.44815484
