19
b3lypvtz=-171832.24416504
C       2.23741708     -0.23802200      0.11316121
C       0.89805382      0.10032553     -0.53245723
C       0.14239628      1.32094584      0.09704586
C      -1.20436030      0.65037149      0.41999116
C      -0.75091490     -0.68588730      1.06818436
C      -0.21161833     -0.96193947     -0.36422502
C      -1.46373789     -0.18860716     -0.86264646
H       2.68587367     -1.12058684     -0.34894900
H       2.94372427      0.58761032      0.00107894
H       2.13536412     -0.43745918      1.18158999
H       1.06709883      0.27430863     -1.59823066
H       0.64108822      1.69351574      0.99405297
H       0.03727771      2.15469505     -0.59847673
H      -1.97811681      1.27111126      0.86744677
H      -0.04510310     -0.64487910      1.89849682
H      -1.58932999     -1.33176106      1.32547521
H       0.01584989     -1.96955693     -0.70836301
H      -1.40249726      0.31601120     -1.82899986
H      -2.37758330     -0.77824402     -0.80218230
