13
b3lypvtz=-218757.62819963
C       3.24898964      0.28008282      0.00000296
C       2.11084724     -0.41411153      0.00000245
N       0.87408002      0.22000880      0.00000815
C      -0.17649558     -0.50271686      0.00000851
C      -1.52008946      0.07122894     -0.00000054
C      -1.86116649      1.35306142     -0.00000055
F      -2.47618654     -0.89032662     -0.00000934
H       3.23291425      1.36119190      0.00000244
H       4.20634839     -0.22046951      0.00000608
H       2.12355763     -1.50580237     -0.00000011
H      -0.14295640     -1.59829825     -0.00000602
H      -1.08262656      2.09941803      0.00000851
H      -2.89774314      1.65373224     -0.00000653
