12
b3lypvtz=-202880.08744485
O       1.16093154      0.01847776      0.19198590
C       2.35670071      0.08117155      0.15829870
C       3.36383555      1.24474870      0.10615266
N       4.30184942      0.88771537      1.22935246
C       4.71882486     -0.24234407      0.36202287
C       3.44656391     -0.87565630     -0.18265287
C       4.16606749      0.31706712     -0.89657809
H       3.05512737      2.27542494     -0.01866903
H       5.06178328      1.56443788      1.21961721
H       5.59929931     -0.84134131      0.54186564
H       3.39098279     -1.90426702     -0.50243239
H       4.46293377      0.37606539     -1.93226306
