14
b3lypvtz=-203692.33389435
C       1.72996974     -1.54664429      0.11123509
C       0.89932794     -0.50820215     -0.05509850
C       1.49716968      0.85693742     -0.03609114
O       0.87932212      1.89063413     -0.11460782
N      -0.46172507     -0.67423879     -0.32178488
C      -1.33236273      0.02136810      0.28728211
C      -2.78370355     -0.08738328     -0.03707046
H       2.78411881     -1.38054528      0.28452122
H       1.37121144     -2.56559278      0.08924053
H       2.60194046      0.85319608      0.04872684
H      -1.06416507      0.72045964      1.08333129
H      -3.17015057      0.88853363     -0.34349810
H      -2.94801270     -0.80989871     -0.83352400
H      -3.35115350     -0.38342872      0.84962781
