14
b3lypvtz=-227009.05869899
C      -0.45725509      1.89761202     -0.09006416
C      -0.32275010      0.42947855      0.34788389
C      -1.56194624     -0.30437832      0.08584257
N      -2.55660624     -0.84202139     -0.12491181
C       0.87463275     -0.27695572     -0.32118377
O       0.95719287     -1.64235207     -0.01628474
O       2.01707733      0.42791718      0.10733144
H      -1.29415534      2.37321247      0.41859394
H      -0.63274813      1.96336097     -1.16425130
H       0.45747892      2.43396153      0.14984874
H      -0.14083402      0.39576647      1.42753059
H       0.76795996     -0.24165989     -1.40924884
H       1.02972963     -1.74404495      0.94097908
H       2.78392369      0.04785015     -0.33491963
