17
b3lypvtz=-240989.17552597
C      -2.50374538     -0.15379256     -0.57376199
O      -1.17776311     -0.60467833     -0.35027978
C      -0.51599473      0.06688664      0.70509401
O      -0.35107352      1.43872591      0.45041217
C       0.80991790     -0.65930358      0.93414221
C       1.69107513     -0.73747225     -0.30173049
O       2.06025248      0.60049433     -0.68653605
H      -3.12633449     -0.30460797      0.31671043
H      -2.90797695     -0.74655026     -1.39215357
H      -2.52604045      0.90405238     -0.84287401
H      -1.13951605      0.01242905      1.60579381
H       0.42094345      1.52857463     -0.12898294
H       0.59834597     -1.67687106      1.26834254
H       1.34518684     -0.14918905      1.73700949
H       1.14721609     -1.22702155     -1.11185166
H       2.59030112     -1.32030307     -0.07888868
H       2.45087071      0.57629074     -1.56430550
