15
b3lypvtz=-191216.76575358
C      -3.34452448     -0.53073813     -0.00000069
C      -2.01352662     -0.45858506      0.00000561
N      -1.28397003      0.71991806      0.00000952
C       0.08183651      0.84455874      0.00000148
C       1.01803710     -0.12594016     -0.00001409
C       2.42907682      0.20443685     -0.00000347
N       3.42980017     -0.58848634      0.00003444
H      -3.83533247     -1.49091570      0.00000091
H      -3.97152416      0.35198862     -0.00000643
H      -1.41135501     -1.35542781      0.00001079
H      -1.81352334      1.57541557      0.00001625
H       0.40789248      1.87819238      0.00000734
H       0.75237737     -1.17614554     -0.00003170
H       2.65681141      1.27491350      0.00006224
H       3.11690025     -1.56224497      0.00000679
