15
b3lypvtz=-216925.38065001028
C       1.96944037      0.26225759     -0.24786488
C       0.57560402     -0.18107355      0.04920482
C       0.16023151     -1.07915403      0.94352339
O      -1.18735873     -1.28676933      1.00657451
C      -1.75589622     -0.52485759     -0.08695724
C      -0.65433259      0.42943292     -0.58372129
O      -0.84932545      1.79904215     -0.20706889
H       2.69153924     -0.22334272      0.40931793
H       2.25020964      0.03247505     -1.28014838
H       2.07375355      1.34307958     -0.12616041
H       0.73821590     -1.66923336      1.63993314
H      -2.05164838     -1.23326195     -0.86320214
H      -2.63235145      0.00919622      0.27494492
H      -0.61776706      0.45754332     -1.67316657
H      -0.71031439      1.86466567      0.74479111
