17
b3lypvtz=-194359.75685557
C      -3.09774244     -0.53684878     -0.31676097
C      -1.97031917     -0.51079231      0.09139921
C      -0.59514641     -0.50074771      0.57524881
C       0.33235245      0.43104586     -0.21593331
O      -0.11165191      1.75701338      0.06714082
C       1.80709410      0.25741169      0.16159093
C       2.42897775     -1.07042890     -0.27147869
H      -4.09710722     -0.55040773     -0.67262726
H      -0.57492311     -0.18253412      1.62174352
H      -0.20086841     -1.51849137      0.54184250
H       0.20897694      0.21517867     -1.28482275
H       0.35130240      2.36847124     -0.51312410
H       2.36133778      1.07768200     -0.30561010
H       1.91044412      0.39703518      1.24121915
H       3.49772014     -1.08504671     -0.05484777
H       1.98296676     -1.92146554      0.24511503
H       2.30798123     -1.23399384     -1.34467702
