13
b3lypvtz=-192811.7414227
C       1.05533928     -1.37815088      0.34738834
C       0.54829153     -0.25158072     -0.16184672
C       1.35549924      0.87089618     -0.51289562
C       1.99031290      1.84259156     -0.82670429
C      -0.91880803     -0.08269911     -0.41072738
C      -1.87530047      0.08218440      0.69379158
O      -1.77330317     -1.15164599     -0.02545361
H       2.11504196     -1.48391102      0.52722944
H       0.40285928     -2.20604436      0.58506623
H       2.56551304      2.69257467     -1.09756586
H      -1.16723531      0.37593632     -1.36418722
H      -2.79347638      0.63754408      0.53316589
H      -1.50473387      0.05230486      1.71273920
