16
b3lypvtz=-204456.76548991
C      -3.12869390     -0.33415513     -0.02845874
C      -1.66167473     -0.38209843      0.23606908
N      -0.85598123      0.45836063     -0.26868582
C       0.52464032      0.35267982     -0.05272769
O       1.10624600      1.57414109      0.15111716
C       1.25153703     -0.76866031     -0.11355206
C       2.74162280     -0.82560812      0.01528199
H      -3.68535019     -0.26959226      0.91041273
H      -3.37928036      0.51467672     -0.66097354
H      -3.45351790     -1.25606225     -0.51966006
H      -1.29922753     -1.18471132      0.88842713
H       0.41983353      2.23511525      0.00126001
H       0.71995401     -1.69042811     -0.30702638
H       3.16874739      0.17163407      0.10313488
H       3.19705108     -1.31787348     -0.84876722
H       3.04494669     -1.39677016      0.89833953
