17
b3lypvtz=-215279.80975171
C       1.19831650     -1.20780827      0.90935014
C       0.82502087     -0.46090258     -0.37772439
N       1.92099058      0.31245970     -0.96903947
C      -0.35954399      0.50224651     -0.18982122
O       0.03535176      1.47036867      0.78821077
C      -1.63084311     -0.19678904      0.23933941
N      -2.61048092     -0.51669649     -0.49595135
H       0.38209757     -1.83743969      1.27000741
H       1.46391096     -0.50560209      1.69970531
H       2.05619670     -1.85620825      0.72385920
H       0.50563820     -1.19128180     -1.12686735
H       2.72741299     -0.28218950     -1.12023980
H       2.20423209      1.03899407     -0.32047945
H      -0.52757073      0.98851752     -1.15705581
H      -0.59728430      2.19451382      0.78352598
H      -1.69281453     -0.43115926      1.30434238
H      -2.44383866     -0.23524532     -1.46657578
