16
b3lypvtz=-181137.10978305
C      -2.33194053      0.44264114     -0.53858011
C      -1.61175943     -0.52447876      0.01360109
C      -0.26962507     -0.37571958      0.69684193
C       0.31007805      1.02080421      0.66384197
C       1.38870283      1.06457788     -0.10639134
C       1.68626737     -0.29714296     -0.68154578
N       0.75926782     -1.21326382      0.01718961
H      -3.28350498      0.23351750     -1.00966161
H      -1.99927969      1.47279891     -0.55079170
H      -1.97685542     -1.54647006     -0.01303905
H      -0.39210176     -0.73374463      1.72608873
H      -0.13979631      1.86122915      1.17270774
H       1.96573046      1.94878715     -0.34090621
H       1.50928473     -0.30745506     -1.76371935
H       2.72295905     -0.60909074     -0.53225169
H       1.27725188     -1.72092633      0.72045676
