17
b3lypvtz=-215305.88652913
C      -1.64588512      1.12079031      0.79314035
C      -1.12325093      0.09441427     -0.21969156
C      -2.17274982     -0.97978741     -0.50741646
N       0.07883415     -0.55240095      0.29035212
C       1.22832468     -0.10702132     -0.00002611
N       1.58968115      0.94824107     -0.80729050
O       2.33832442     -0.73379530      0.47612078
H      -0.91089684      1.90628062      0.98067624
H      -2.56405553      1.59239262      0.43703233
H      -1.85561579      0.62960079      1.74477740
H      -0.92323647      0.61514733     -1.16830207
H      -2.40798969     -1.52686733      0.40707136
H      -3.09206703     -0.53649519     -0.89526306
H      -1.79817566     -1.69555950     -1.23958088
H       0.91071245      1.67703042     -0.93491604
H       2.54033516      1.26330897     -0.71200922
H       2.00644687     -1.49096838      0.97672229
