16
b3lypvtz=-227726.48156438538
C       1.56600451     -0.34877148     -0.37297525
C       0.43974075      0.15047323      0.52713078
N      -0.86434946      0.13024399     -0.15157629
C      -1.27095027      1.41601840     -0.71237059
C      -1.64617705     -0.93207440     -0.43783353
O      -1.24560821     -2.08343744      0.10721510
O       0.32737769     -0.63402201      1.72227055
H       2.52506703     -0.29875053      0.14864682
H       1.63966593      0.27629998     -1.26331696
H       1.38570779     -1.37570004     -0.68728592
H       0.63109183      1.18920033      0.81012543
H      -1.43529098      2.15057231      0.07970942
H      -2.19563424      1.25588576     -1.25684049
H      -0.51494326      1.80813920     -1.39901051
H      -0.54652131     -1.96844579      0.77979246
H       1.20481927     -0.73563150      2.10631896
