12
b3lypvtz=-226214.60514885
C       1.22876242      0.06108309     -0.14276542
C      -0.29178497      0.37733914     -0.07910514
C      -0.42606345     -1.13664930      0.24636722
O       0.97948895     -1.35159739      0.00543790
C      -0.70614397      1.29422813      0.98088277
N      -1.00107811      1.98444926      1.85167330
O      -0.89242781      0.81872469     -1.27430686
H       1.69019270      0.31192466     -1.10036387
H       1.82366823      0.46570865      0.67783967
H      -1.06418254     -1.68161285     -0.45268546
H      -0.71103597     -1.36882086      1.27392389
H      -0.62939552      0.22522280     -1.98689801
