15
b3lypvtz=-214494.76792751
C       2.13601462     -0.89574852     -0.57357141
C       1.17468598     -0.70832120      0.60949794
C      -0.14402873     -0.09769794      0.22917201
C      -1.31043335     -0.81482707      0.12511098
N      -2.50152746     -0.32275350     -0.25238630
N      -0.28959997      1.25292618     -0.03492586
O       0.72674125      1.94643627      0.05457558
H       2.34042063      0.05907987     -1.05524431
H       1.71530854     -1.57232607     -1.31993597
H       3.08563027     -1.31501104     -0.23612688
H       1.64790914     -0.05641344      1.34711257
H       0.99665309     -1.67008424      1.09704854
H      -1.30120702     -1.87540483      0.34843204
H      -3.33334667     -0.87887383     -0.20135539
H      -2.57534231      0.66690234     -0.42737956
