17
b3lypvtz=-194365.8803001
C       3.28474689     -0.00597063     -0.24763904
C       1.93427257      0.00587149      0.39585359
C       0.77108635     -0.00071454     -0.24834505
C      -0.55402744      0.03269755      0.42336025
C      -1.60423377      1.06725151     -0.04998059
C      -2.52540584     -0.14641050     -0.23514271
O      -1.43269690     -1.06107749      0.01397938
H       3.86413778      0.87688719      0.03698039
H       3.21207530     -0.02966319     -1.33510036
H       3.86381276     -0.87540723      0.07572455
H       1.92181155      0.02100929      1.48329523
H       0.74972683     -0.03081516     -1.33504940
H      -0.42528875      0.02534918      1.51101625
H      -1.33044091      1.56143535     -0.98055298
H      -1.90633398      1.81493058      0.68007153
H      -3.31176724     -0.24433352      0.51943028
H      -2.96065720     -0.29269287     -1.22539431
