19
b3lypvtz=-195139.51350005
C      -2.31174325     -0.63974151      0.12534335
C      -1.08004607     -0.39176429     -0.74424705
C       0.05740519      0.34582512     -0.03478523
O      -0.38096990      1.60215136      0.47292215
C       0.78864112     -0.47799130      1.05295368
C       1.91526932     -0.78527900      0.03379922
C       1.38027045      0.36569844     -0.85605031
H      -3.09772310     -1.13555202     -0.44605145
H      -2.71173259      0.29634149      0.51416634
H      -2.07424033     -1.27516740      0.98009724
H      -0.69679390     -1.34098478     -1.12929480
H      -1.36216508      0.19476531     -1.62756150
H      -0.78753615      2.09964417     -0.24549911
H       1.12527798      0.18049625      1.85227052
H       0.25269929     -1.31989058      1.48966162
H       1.80068069     -1.76253883     -0.43408713
H       2.93888128     -0.69425268      0.39186679
H       1.91604597      1.29838116     -0.68291966
H       1.30510707      0.18674010     -1.92963167
