18
b3lypvtz=-181917.92716955
N       2.08637684     -0.12113852      0.62854574
C       1.10026535      0.08618749     -0.45611885
C       0.25098178      1.32035960     -0.25568475
C      -1.04995931      1.29390892      0.02711023
C      -1.84302691      0.02393449      0.17339161
C      -0.93869941     -1.19884202      0.35500414
C       0.22758554     -1.16443172     -0.63605012
H       2.74621961      0.64913607      0.64592955
H       1.61401573     -0.09932729      1.52632443
H       1.69294051      0.21646977     -1.36603061
H       0.76314325      2.27547654     -0.32796501
H      -1.58559967      2.22843934      0.16013906
H      -2.47775230     -0.10808386     -0.71217014
H      -2.53457187      0.11655640      1.01562908
H      -0.55243750     -1.21383592      1.37887225
H      -1.51477939     -2.11810938      0.23220805
H      -0.17412518     -1.16961632     -1.65391299
H       0.85899794     -2.04696759     -0.52957767
