17
b3lypvtz=-220293.42073315
F      -2.59544213      0.28153266     -0.00483770
C      -1.51238951     -0.49036340     -0.43747126
C      -0.32490581     -0.30061401      0.49547750
C       0.27508327      1.12007811      0.43309832
C       1.52565236      0.95920853     -0.44301442
C       2.00946541     -0.44094225     -0.07182996
N       0.75824588     -1.19950065      0.04862749
H      -1.83022168     -1.53436434     -0.45307618
H      -1.26092019     -0.18063469     -1.45405623
H      -0.66101517     -0.52911731      1.51223883
H       0.56198491      1.44626651      1.43408662
H      -0.43874823      1.84724229      0.04820326
H       2.27578514      1.72768762     -0.26035661
H       1.26395093      0.99196388     -1.50228571
H       2.65560388     -0.88266194     -0.83251801
H       2.57825058     -0.40192561      0.86840846
H       0.85007036     -2.01539440      0.63534958
