14
b3lypvtz=-203670.60193605
O       2.26394868     -0.59969638      0.89895389
C       1.10326779     -0.07637014      0.41977936
C       0.58152233     -0.39371474     -0.96478155
N      -0.72329722      0.28253425     -1.05966617
C      -1.74946743     -0.22064018     -0.13793893
C      -0.93748323      0.96458607      0.24679378
C       0.25899506      0.70764657      1.08929604
H       2.77096363     -0.98134273      0.17566076
H       0.47801089     -1.47132554     -1.12924021
H       1.24949285     -0.00887358     -1.74460618
H      -2.76297206     -0.09931011     -0.50205716
H      -1.55753374     -1.14215884      0.40228679
H      -1.37468333      1.95596344      0.21454546
H       0.39933577      1.08260190      2.09107413
