18
b3lypvtz=-181915.36015379
C      -1.20840752      0.00000143      1.37895465
C      -0.59794872     -0.00000011     -0.03172600
N      -1.61995157     -0.00000089     -1.09157134
C       0.34464057     -1.22889411     -0.20018380
C       1.72476309     -0.66431044     -0.00110192
C       1.72476299      0.66431010     -0.00110348
C       0.34464040      1.22889357     -0.20018654
H      -1.83229635      0.88440753      1.52916488
H      -1.83230590     -0.88439843      1.52916181
H      -0.43279962     -0.00000414      2.14848025
H      -2.22306942      0.81068071     -0.99101173
H      -2.22306995     -0.81068183     -0.99100957
H       0.10726181     -2.02843526      0.50764478
H       0.23579456     -1.64859210     -1.20501038
H       2.60502586     -1.28600478      0.09773928
H       2.60502584      1.28600500      0.09773618
H       0.10726162      2.02843649      0.50764013
H       0.23579433      1.64858928     -1.20501418
