13
b3lypvtz=-234637.8554668004
C       1.76255530      0.25947246      0.19434084
O       2.79043007     -0.29429005      0.48229368
N       0.53556984     -0.45642660      0.10841455
C      -0.56605522      0.18344408     -0.31183981
N      -1.70414460     -0.53357652     -0.20579568
N      -0.55064248      1.50492372     -0.75565825
N       0.41518949     -1.75106933      0.46614939
H       1.65279498      1.32737563     -0.00584513
H      -2.47880496     -0.31857039     -0.80870907
H      -1.50919360     -1.50089089      0.05849347
H      -0.31385009      1.63303932     -1.73081855
H      -1.39865329      2.00495238     -0.52640249
H       1.36480458     -2.05838382      0.65628087
