15
b3lypvtz=-214512.82367175
N      -3.32735815     -0.56845661     -0.27714079
C      -2.14233197     -0.49130017      0.16137462
C      -1.28756142      0.75172281      0.28419174
N       0.03625110      0.65528639     -0.32636759
C       1.02720786     -0.15141816      0.36733957
C       2.42938752      0.21593431     -0.08358169
O       3.34337107     -0.56227525     -0.14826202
H      -3.67737987      0.35642265     -0.54398800
H      -1.66782851     -1.42539663      0.47413505
H      -1.14685537      0.98756370      1.34393443
H      -1.82226367      1.59572731     -0.16099580
H      -0.04196841      0.37702094     -1.29674560
H       0.91213887     -1.23883276      0.28634101
H       0.98043037      0.09675552      1.43471543
H       2.55037758      1.28682995     -0.34692435
