15
b3lypvtz=-191195.93745285
C      -0.80091069      2.40669142      0.48170126
C      -0.36299587      1.28310578      0.43705524
C       0.15910653     -0.03549595      0.38887937
C       1.40633835     -0.25689924     -0.08398286
N       2.25622944      0.68763443     -0.59582833
C      -0.72783304     -1.17145610      0.83555107
N      -1.78010869     -1.46003328     -0.15511729
H      -1.19782542      3.38988565      0.51963110
H       1.78491431     -1.27110940     -0.11669464
H       2.01600041      1.65363082     -0.43482504
H       3.24058500      0.48713731     -0.58156306
H      -0.11665460     -2.06983513      0.94843587
H      -1.13175164     -0.93050208      1.82848233
H      -2.45581694     -2.10568038      0.23996156
H      -2.28927714     -0.60707384     -0.36161296
