16
b3lypvtz=-204429.28983072
N      -2.70787913      0.87237599      0.23857479
C      -2.34104046     -0.32682769      0.09602088
C      -0.94707235     -0.82546893     -0.17510235
O      -0.05165023      0.26138352     -0.25094411
C       1.27168465     -0.11515984     -0.50850734
C       2.15037031     -0.53507043      0.63652768
C       2.32959491      0.81417493     -0.02901160
H      -1.90123944      1.49360701      0.13967398
H      -3.09301509     -1.11664463      0.17250650
H      -0.65420293     -1.52545513      0.62048679
H      -0.95098080     -1.39999920     -1.11373343
H       1.41042273     -0.60629353     -1.46803116
H       1.70365210     -0.53531164      1.62111971
H       2.89141666     -1.30464353      0.47024725
H       1.99547155      1.68115380      0.52281895
H       3.19347551      0.97799529     -0.65744553
