14
b3lypvtz=-227016.88044143328
C      -1.38733772     -1.23392079     -0.55428633
C      -0.62677007     -0.19696921     -0.21634704
C       0.81094384     -0.07583764     -0.66562448
N       1.71081464      0.17650803      0.47796772
C      -1.24553649      0.91042294      0.61290006
O      -0.37679730      1.71329421      1.24671491
O      -2.43529149      1.06934274      0.70357834
H      -0.99667822     -2.05578720     -1.14107448
H      -2.42512314     -1.26907152     -0.25372181
H       0.90525513      0.78441655     -1.33397951
H       1.08474904     -0.96424197     -1.24212070
H       0.53776085      1.34562556      1.14757200
H       1.80944829     -0.65286706      1.05199114
H       2.63456263      0.44908536      0.16643017
