10
b3lypvtz=-284677.47426638
F      -3.05641062     -0.25890624     -0.00265634
C      -1.74389071     -0.35886336     -0.25235267
C      -0.86825922      0.48085586      0.28351631
C       0.56506005      0.34328317      0.08218895
F       1.20625504      1.49426351     -0.21551511
C       1.26166789     -0.78390481      0.19473778
F       2.57745654     -0.82967367     -0.05521960
H      -1.50668486     -1.17679143     -0.91913271
H      -1.21793290      1.31112768      0.88626562
H       0.83057778     -1.72342469      0.50237378
