20
b3lypvtz=-205981.73731909
C       1.65319254      1.21176740      0.08932891
C       0.86283134      0.02121855     -0.44721872
N       1.59759845     -1.20768750     -0.14749580
C      -0.63192116     -0.00192724     -0.00654787
C      -0.81213465     -0.13364133      1.50676915
C      -1.39051231      1.21468310     -0.54321861
O      -1.14492633     -1.18796539     -0.65126981
H       1.20657520      2.16451448     -0.19167172
H       1.72953642      1.18273606      1.17903469
H       2.66531513      1.17830011     -0.31233359
H       0.82746969      0.09897007     -1.53837597
H       1.03332869     -2.01062723     -0.39877138
H       1.79535647     -1.27684414      0.84431584
H      -0.28895270     -1.01202692      1.88413157
H      -1.87134631     -0.24567000      1.75151312
H      -0.44697982      0.74651975      2.03728045
H      -1.24055710      1.31258477     -1.61914278
H      -2.46232878      1.10047496     -0.36225938
H      -1.07587699      2.14020082     -0.06074868
H      -2.07127777     -1.28991334     -0.41141343
