17
b3lypvtz=-194342.45884156
C       2.26040263     -0.85656443      0.13282888
O       1.61474516      0.31778974     -0.32708676
C       0.48573426      0.65181982      0.42474782
C      -0.50438516      1.57860287     -0.23703394
C      -0.85543662      0.15755755      0.03275683
C      -1.43042399     -0.96725881     -0.73561688
C      -1.98115632     -0.59210030      0.63557973
H       1.60542115     -1.73172496      0.07020419
H       3.12807768     -1.01501936     -0.50499008
H       2.59759111     -0.74611052      1.17068441
H       0.68848289      0.79750599      1.48499261
H      -0.27862210      1.85248096     -1.25992289
H      -0.95192751      2.36177507      0.36209849
H      -0.86517091     -1.88631714     -0.81785602
H      -2.03744529     -0.73867661     -1.60232747
H      -2.95350805     -0.11700308      0.67415810
H      -1.77610793     -1.26280478      1.46061099
