12
b3lypvtz=-231236.81137228
C      -2.63693252     -0.89597309     -0.00003249
C      -1.31094107     -0.80507172     -0.00004475
C      -0.62959632      0.52325743     -0.00012698
O      -1.26646085      1.56284626     -0.00020971
C       0.84669067      0.58700216     -0.00010141
C       1.66680746     -0.45744976      0.00010247
F       2.99494195     -0.29959388      0.00013279
H      -3.24329242      0.00048625     -0.00007292
H      -3.14068711     -1.85287369      0.00002983
H      -0.70687855     -1.70290671     -0.00000474
H       1.26317598      1.58612009     -0.00023139
H       1.39013879     -1.50200535      0.00025729
