14
b3lypvtz=-255322.93799265
C      -2.72363366     -0.74863408      0.00009558
C      -1.71144687      0.37360875     -0.00009292
O      -0.39066606     -0.22866607     -0.00032087
C       0.63970046      0.61499005     -0.00033169
O       0.56202012      1.81833344     -0.00000791
C       1.98883972     -0.08200161      0.00001715
F       1.90611940     -1.45782632     -0.00029188
H      -3.73195877     -0.33216125      0.00025327
H      -2.61144311     -1.37608304     -0.88399853
H      -2.61115102     -1.37604726      0.88417830
H      -1.80002517      1.00965889      0.88062084
H      -1.80035340      1.00964908     -0.88077980
H       2.53556148      0.24327907      0.88714184
H       2.53639587      0.24364435     -0.88646237
