17
b3lypvtz=-217681.79979673
C       2.70899444      0.37102893      0.31576601
C       1.80277165     -0.25335228     -0.42869058
C       0.49144241     -0.78213374      0.07129076
C      -0.69034661      0.07156968     -0.41145569
C      -2.03186395     -0.47899140      0.04653622
O      -3.11144016      0.31734316     -0.40758467
O      -0.62325841      1.39846236      0.11560732
H       3.62908569      0.75016804     -0.10944207
H       2.56871703      0.50936549      1.38157028
H       1.99002574     -0.37376356     -1.49274288
H       0.34576123     -1.80715527     -0.28444949
H       0.48404301     -0.80331787      1.16335754
H      -0.69125038      0.11178457     -1.50860763
H      -2.18198346     -1.47866462     -0.36348820
H      -2.02855833     -0.55380336      1.14197099
H      -2.89901139      1.22828473     -0.17319721
H       0.23687147      1.77317512     -0.10377105
