15
b3lypvtz=-214514.79893353
C      -2.27338852     -0.14120152      1.20791868
O      -1.63410068      0.14777769     -0.04030768
C      -0.33370523     -0.20669779     -0.18228744
C       0.50891617      0.62983149     -0.83307613
N       1.79090782      0.20109178     -1.11013837
C       2.62943358      0.97004398     -1.68326582
N       0.05483458     -1.41068658      0.37190723
H      -2.41890031     -1.21189241      1.35853714
H      -1.69747727      0.26306920      2.04237101
H      -3.24336498      0.34695886      1.15843770
H       0.16183717      1.61820828     -1.12150266
H       3.62902287      0.60400626     -1.89320351
H       2.39209536      1.99648036     -1.98102917
H      -0.57637826     -2.18016723      0.19497773
H       1.01026771     -1.62682237      0.11660611
