16
b3lypvtz=-204469.90499236
C       0.75559369     -1.18280005     -0.84445198
C       0.18013075     -0.00471548     -0.06702812
C       1.24929526      1.00747305      0.32755590
C      -0.83030671     -0.38443314      1.06697207
N      -1.87089951      0.27555003      0.27241229
C      -1.05147827      0.64402258     -0.75921966
O      -1.24122042      1.23877880     -1.78829945
H      -0.01766045     -1.90675954     -1.10635967
H       1.52139691     -1.69762246     -0.25993631
H       1.21415616     -0.83498233     -1.77106515
H       1.72191826      1.42242247     -0.56380442
H       0.82642079      1.83641252      0.89737836
H       2.02565758      0.53674746      0.93486892
H      -0.63877075      0.08817401      2.03169608
H      -0.98653556     -1.45557660      1.20450344
H      -2.85779774      0.41740867      0.42507769
