12
b3lypvtz=-202888.50193274
C       2.94817978      0.07062513      0.08937640
C       1.77452983     -0.17278466      0.13439736
C       0.36922242     -0.45313300      0.22507690
C      -0.64170104      0.39376474     -0.52249071
N      -0.31930116     -0.96073265     -0.95983359
C      -1.93665438      0.62674092      0.16765980
O      -2.61621602     -0.26930575      0.61142475
H       3.98794226      0.27858273      0.04002254
H       0.02892321     -0.81925051      1.18776235
H      -0.26589385      1.19535940     -1.14525572
H      -1.07647831     -1.57254226     -0.65782154
H      -2.25255271      1.68267591      0.25684023
