15
b3lypvtz=-193574.4786862
C       2.10173233     -0.23502064     -0.18160368
C       0.60647667     -0.40122888     -0.31658734
C      -0.25409686     -0.12259663      0.88788633
C      -1.69660754     -0.44361725      0.58645755
O      -2.47273203      0.76367345      0.59988895
C      -1.69389112      0.47381237     -0.57031109
C      -0.25127961      0.83701996     -0.32233877
H       2.56240906     -0.04064715     -1.15202590
H       2.35207804      0.59762233      0.47844597
H       2.55951430     -1.13614349      0.23092623
H       0.30728558     -1.21882830     -0.96530204
H       0.16707320      0.06360290      1.86574562
H      -2.23286754     -1.37122855      0.72938097
H      -2.22757265      0.40311853     -1.50767105
H       0.17237815      1.83056135     -0.36279176
