13
b3lypvtz=-211363.69523218
N       2.82718138     -0.51438967     -0.47895891
C       2.26101222      0.27944774      0.32885196
C       0.79028820      0.47817371      0.46441731
N      -0.02490156     -0.21032394     -0.21849339
C      -1.41545217      0.04300931     -0.11244665
N      -2.00869340      1.11903566     -0.44996848
N      -2.10064343     -1.04186371      0.37778830
H       2.11628478     -1.00567263     -1.03093483
H       2.88283901      0.88077771      0.99251135
H       0.45503478      1.24157230      1.17370431
H      -1.34763704      1.82686614     -0.75293848
H      -1.66523604     -1.94051273      0.25554875
H      -3.09612072     -1.01368089      0.22701676
