14
b3lypvtz=-201273.02619428
N      -2.51222546      0.39055598      0.00289847
N      -1.71917924     -0.59096769      0.04064942
C      -0.39136143     -0.25229526      0.01554337
C       0.59668675     -1.17755286     -0.00437821
N       1.83723856     -0.61610964     -0.12254067
C       1.72582103      0.84128723      0.10909217
C       0.21825850      1.13146464     -0.08698390
H      -3.45813049     -0.00645216      0.03628288
H       0.47073987     -2.24945094      0.02037038
H       2.64373825     -1.11000396      0.22225856
H       2.36332323      1.38871092     -0.58347759
H       2.04081184      1.08358520      1.12857375
H      -0.18004339      1.81939954      0.65739927
H       0.00966297      1.57056900     -1.06623691
