14
b3lypvtz=-201284.26635733
C       0.25457528      2.30405443      0.13371233
N      -0.47625581      1.28238891     -0.06707336
C       0.03621262     -0.02079261     -0.07775698
C       1.46877467     -0.31143894     -0.21948053
N       2.13306316     -1.33469998      0.15398558
C      -0.88792043     -1.02289319     -0.06021538
N      -2.22066860     -0.82932128      0.08942393
H      -0.20779984      3.28647171      0.10853248
H       1.32540530      2.26624406      0.34448470
H       2.03424567      0.45437407     -0.75572917
H       1.54497070     -1.97749628      0.68904325
H      -0.56744704     -2.05301071     -0.14674987
H      -2.85600299     -1.54145785     -0.22281551
H      -2.53379068      0.12868168      0.02963153
