16
b3lypvtz=-204422.58433351
C       3.29726770      0.42244084      0.01678319
C       2.19364609     -0.30995110      0.10010952
O       0.96376637      0.17670087     -0.20797514
C      -0.14261199     -0.66210967      0.12784009
C      -1.38419351     -0.06859818     -0.47162496
C      -2.19653090      0.92695074      0.26118502
N      -2.63703356     -0.47506252      0.17740838
H       3.26630098      1.45967283     -0.28533766
H       4.25288664     -0.02246614      0.24636672
H       2.21805251     -1.35229769      0.40687987
H       0.02435277     -1.67149529     -0.26560062
H      -0.25647244     -0.73268756      1.21377097
H      -1.37133922      0.00963201     -1.55352022
H      -1.88711577      1.24787962      1.24808304
H      -2.72436767      1.67552012     -0.31671394
H      -3.37578301     -0.57799988     -0.50881226
