13
b3lypvtz=-239473.26482692
C      -2.15970867     -1.24293269      0.00001376
O      -1.78530662      0.13885770      0.00000215
C      -0.48295284      0.45853587     -0.00002278
O      -0.32530540      1.79069318     -0.00003045
C       0.56302700     -0.39897325     -0.00003364
C       1.94324388      0.04062283     -0.00002067
O       2.89536648     -0.71734218      0.00001736
H      -1.78239450     -1.74198950      0.89278439
H      -3.24529862     -1.25132563      0.00003524
H      -1.78243066     -1.74199429     -0.89276947
H      -1.20000369      2.19996855     -0.00000662
H       0.38763929     -1.46276173     -0.00004229
H       2.09890837      1.13549613      0.00008301
