11
b3lypvtz=-210584.26105854436
C       0.65754571      0.94490080      0.57045450
N      -0.56573870      1.33771404      0.74666209
C      -1.53018853      0.53319759      0.24432912
N      -1.20777028     -0.58291141     -0.38540133
N      -0.00675753     -1.07049297     -0.61710381
C       1.04558465     -0.28807107     -0.12294086
N       2.28646666     -0.58605251     -0.24281832
H       1.45987384      1.56308404      0.95871157
H      -2.57514637      0.78011997      0.34433251
H      -1.95407480     -1.16486364     -0.75113669
H       2.39020535     -1.46662484     -0.74508878
