10
b3lypvtz=-220649.45636818
C      -1.35893327     -0.26893605      0.53461919
N      -0.17206848     -0.81636295      0.21763318
C       0.84623713     -0.01784273     -0.29742528
N       1.96747603     -0.51685394     -0.60112067
N       0.50480957      1.35614473     -0.43863569
N      -0.62559687      1.80252349     -0.12206396
N      -1.64025016      0.98454608      0.39463890
H      -2.11815961     -0.93343423      0.93166307
H       0.01569826     -1.80116045      0.33958870
H       2.58078738      0.21137604     -0.95889745
