15
b3lypvtz=-214495.86283741
C       2.87500672      0.86466824     -0.29626851
C       2.30297261     -0.37900341      0.35854184
O       1.04040658     -0.75421698     -0.22001784
C      -0.04981723     -0.14654415      0.26057150
C      -1.26795819     -0.30943679     -0.27969155
N      -2.32164769      0.35271175      0.33630724
N      -3.43549931      0.16440568     -0.20611949
H       2.98751497      0.71526290     -1.37011785
H       2.23013215      1.72945822     -0.13469406
H       3.85639232      1.08900740      0.12571787
H       2.95114009     -1.23926933      0.19993220
H       2.17626198     -0.24181540      1.43605202
H       0.07119077      0.48583796      1.13546671
H      -1.45336098     -0.92463178     -1.15447277
H      -4.11783277      0.70519268      0.33967269
