14
b3lypvtz=-226995.22734225
C       2.09037049     -1.09944394     -0.34391926
C       1.44690857      0.03900840     -0.07187071
O       2.13134896      1.17466982      0.24568527
N       0.06361627      0.24573883     -0.12834007
C      -0.71037272     -0.60799182      0.39901389
O      -2.03863024     -0.53893727      0.34684559
C      -2.60660637      0.56306934     -0.37909015
H       1.54647935     -1.98051255     -0.64256217
H       3.16805407     -1.13615250     -0.31412855
H       1.48350497      1.88391927      0.32666975
H      -0.38256662     -1.48708778      0.95275121
H      -2.25060086      0.56470709     -1.40828522
H      -2.33563212      1.50746897      0.09123752
H      -3.68123876      0.41259116     -0.34204111
