17
b3lypvtz=-191954.85407473
C       1.13375356      1.99756154     -0.13077212
C       1.49759216      0.73313257      0.12377107
N       0.79002054     -0.45969323      0.12756119
C       1.55160111     -1.68776764     -0.07871248
N      -0.54669673     -0.65351368     -0.06579996
C      -1.41867217      0.26011544      0.12270557
C      -2.86775724     -0.06979923     -0.04508713
H       0.14830120      2.31851159     -0.41808889
H       1.89861022      2.75860182     -0.08091695
H       2.53904245      0.55451886      0.36634764
H       0.97843916     -2.52336681      0.31266832
H       2.49869174     -1.62428722      0.45564493
H       1.75752598     -1.86790426     -1.13909970
H      -1.17023727      1.26281727      0.45274274
H      -3.41358051      0.09644272      0.88868941
H      -3.33275442      0.57143823     -0.79939334
H      -2.98740078     -1.10976498     -0.34419830
