13
b3lypvtz=-211336.42732255
C      -1.83374088      0.48569305      0.15157341
C      -0.66512811     -0.19205769      0.24208084
N       0.50359587      0.46959992     -0.01663192
C       1.61964773     -0.14928800      0.06375591
N       2.79823943      0.55391536     -0.21352217
N       3.81855097     -0.16385321     -0.10241371
N      -3.07272981     -0.00910526      0.42501637
H      -1.79622509      1.53105882     -0.12627099
H      -0.65340457     -1.24872130      0.51782142
H       1.73172737     -1.20554908      0.33657763
H       4.62264791      0.43720231     -0.32368967
H      -3.87850811      0.49225846      0.09868631
H      -3.19467270     -1.00115339      0.53800156
