17
b3lypvtz=-191967.61132978
C      -1.54031208      1.44283917     -0.28434896
C      -1.25983427      0.19210874      0.10148284
N      -2.23388672     -0.79778671      0.24993675
C       0.12162023     -0.30105257      0.37180079
C       0.85990111     -1.14698950     -0.64672017
C       1.33810220      0.23912511     -0.31680105
N       2.53958810      0.35183650      0.47564772
H      -0.75557289      2.16705196     -0.43193441
H      -2.55709758      1.76445112     -0.47004224
H      -3.17572801     -0.46599526      0.38669449
H      -1.99447314     -1.54750607      0.87869454
H       0.29413844     -0.59805479      1.40157152
H       0.38429204     -1.30278812     -1.60471270
H       1.45000804     -1.97331366     -0.27593745
H       1.15389903      0.98797950     -1.08199214
H       3.36262297      0.30791434     -0.11410423
H       2.56701353      1.23995824      0.96328571
