16
b3lypvtz=-181116.91094335
C       3.19756026     -0.54426668     -0.00001500
C       2.18742952      0.32903952      0.00001066
C       0.78264850     -0.02950826     -0.00004321
C      -0.20247628      0.87686900     -0.00001292
N      -1.60894299      0.65830003     -0.00008753
C      -2.14559145     -0.49794994      0.73794247
C      -2.14550216     -0.49814041     -0.73786984
H       4.22801956     -0.21736037      0.00002876
H       3.02283707     -1.61360137     -0.00008060
H       2.40930916      1.39245325      0.00007474
H       0.55513872     -1.09161636     -0.00011015
H       0.04888543      1.93296586      0.00007099
H      -1.43581205     -1.14138646      1.24422454
H      -3.05881219     -0.29967599      1.28518147
H      -3.05865977     -0.29999495     -1.28526054
H      -1.43568234     -1.14171988     -1.24391181
