13
b3lypvtz=-237028.05805383
C      -1.12496845     -0.82219532      1.31317872
N      -0.22555899      0.04108396      1.10965603
C       0.11721301      0.43234346     -0.18666587
N      -0.57784171      1.16336750     -0.96974527
O      -1.84067822      1.48883848     -0.43157345
C       1.50655184      0.05451185     -0.63357658
O       1.72260645     -1.35068802     -0.59212939
H      -1.37334385     -1.08830837      2.33818780
H      -1.67474675     -1.32092811      0.51305237
H      -2.20206957      2.06659546     -1.11062030
H       2.23814026      0.58309359     -0.01246015
H       1.63166467      0.37029646     -1.66605270
H       1.80303129     -1.61801094      0.32874880
