14
b3lypvtz=-180351.77205676
C       3.13203351     -0.52754150     -0.17517417
C       2.02023891     -0.07756749     -0.25255860
C       0.68934928      0.46558968     -0.34501092
N       0.44924085      1.72005787     -0.39956239
C      -0.42117432     -0.52440338     -0.37453501
C      -1.65584964     -0.21505371     -1.19940374
C      -1.73841627     -0.16632547      0.28663067
H       4.11732813     -0.91750960     -0.10677392
H       1.31105906      2.26037288     -0.36893611
H      -0.11090372     -1.55756697     -0.32348909
H      -2.11756816     -1.04026801     -1.72310313
H      -1.63977149      0.72804390     -1.72661490
H      -2.25847017     -0.95708939      0.80874226
H      -1.77709595      0.80926119      0.74968904
