16
b3lypvtz=-181102.13438791
C      -2.41357165     -0.18815701      0.46833816
C      -1.09245863      0.15712814     -0.16324384
C       0.08786913      0.42650761      0.68823618
C       1.29251432      0.81655586     -0.11658231
C       2.29751071     -0.31248089     -0.10736596
C       1.06032360     -0.45697658     -0.92411975
N      -0.06460867     -0.89925747     -0.07454510
H      -2.98189738      0.71617437      0.69516491
H      -2.26635835     -0.74621908      1.39306430
H      -3.01132840     -0.80597627     -0.20396141
H      -1.15539394      0.69320857     -1.10630047
H       0.01200329      0.45356535      1.76926193
H       1.55154887      1.81683447     -0.43622902
H       2.42562408     -0.92574484      0.77663946
H       3.20525688     -0.12095558     -0.66567309
H       1.05306614     -0.62410664     -1.99268398
