14
b3lypvtz=-201310.49795389
N       2.58258964     -0.05139428      0.31508765
C       1.24641282      0.17496587      0.06805114
C       0.22990594     -0.86011431      0.25553044
C      -0.95201583     -0.26382214     -0.01294757
N      -2.22063093     -0.78394512     -0.04938059
C      -0.65470842      1.17469960     -0.37285638
N       0.78914606      1.33042094     -0.28927457
H       3.19309185      0.66655563     -0.04307866
H       2.91494670     -0.98854199      0.16034991
H       0.40472921     -1.88136821      0.55903566
H      -2.37547334     -1.65958776      0.42276451
H      -2.98158121     -0.13346668      0.05413032
H      -1.01398471      1.41134205     -1.38018729
H      -1.16232779      1.86425639      0.31287542
