13
b3lypvtz=-216114.78716714
C      -1.66520458      0.38710942     -0.12383665
C      -0.15492165      0.52383194     -0.14010245
C       0.65396387     -0.14441281      1.00774459
C       1.87962965     -0.15193962      0.06463969
O       3.05688989     -0.01436012      0.04375492
C       0.67751085     -0.61821005     -0.78929943
O       0.37038370     -1.47482100      0.39365854
H      -2.08022114      0.62871091     -1.10366485
H      -1.96615670     -0.62502232      0.13925528
H      -2.10265028      1.07791697      0.59874117
H       0.16935085      1.53381357     -0.40203161
H       0.55546235     -0.05263226      2.08465199
H       0.60596321     -1.06998462     -1.77351119
