11
b3lypvtz=-236337.54478389
C      -0.36030068     -1.00422751      0.25110275
C      -0.86854412      0.21386314     -0.01818598
N       0.17732157      1.08162969     -0.26261669
C       1.40545381      0.42359330     -0.15271714
O       2.51681995      0.89318343     -0.30534699
N       1.04137639     -0.86543563      0.16592052
O      -2.12491346      0.71122735     -0.08893061
H      -0.84326458     -1.93254226      0.48895077
H       0.09316936      2.05597455     -0.49013744
H       1.72071868     -1.58846370      0.31163076
H      -2.75783691      0.01119763      0.10033006
