15
b3lypvtz=-214481.63306235
C      -1.72482102      1.04788628      0.16835494
C      -0.77870337     -0.06908220      0.56517830
N      -0.78560821     -1.27002932     -0.33591910
C       0.70401479     -1.26569562     -0.44372545
C       0.69586466      0.07323610      0.24917959
N       1.49903836      1.01954225      0.46313661
O       2.78374390      0.71951492     -0.04793239
H      -1.54479391      1.93460753      0.77828883
H      -1.58431104      1.30897720     -0.88026959
H      -2.76138478      0.73666544      0.30959652
H      -0.92535810     -0.33052313      1.62066166
H      -1.16326461     -2.10370634      0.09543598
H       1.08317612     -1.27797618     -1.46689525
H       1.22219644     -2.04038117      0.13127774
H       3.28011077      1.51686423      0.16153161
