13
b3lypvtz=-213769.57551591
C      -1.99243747      1.15186518     -0.12142231
C      -1.42878474     -0.22664873      0.07628214
N      -2.08340167     -1.30972139      0.22351421
C       0.04667720     -0.38143893      0.10392693
N       0.82675424      0.61298126      0.00289762
C       2.21406612      0.45570167     -0.04241411
O       2.81353059     -0.11068341     -0.91902928
H      -1.64106119      1.57545266     -1.06357856
H      -3.08100533      1.12696826     -0.12163969
H      -1.64612599      1.82275781      0.66604265
H      -3.08974480     -1.14098741      0.19063280
H       0.39789599     -1.40877064      0.22241937
H       2.71896404      0.98638465      0.78260324
