9
b3lypvtz=-287131.21113342
O       0.95766776      0.07641376     -0.04979627
N       0.31477577      0.25725285     -1.27983485
C      -0.93997133      0.23929476     -1.15407665
F      -1.59001772      0.07320381     -0.02123914
O      -1.68479776      0.40381216     -2.27418770
C      -3.06460948      0.41119830     -2.32868719
O      -3.82891858      0.27885528     -1.43221043
H       1.88568142      0.11341885     -0.30279065
H      -3.31691009      0.56625023     -3.38267712
