16
b3lypvtz=-202055.79329664
C      -2.62495073     -0.13571260      0.33498603
C      -1.65497369     -0.91780720     -0.14330191
N      -0.28448114     -0.68946603     -0.24713012
C       0.47081564      0.47080826     -0.08200055
N      -0.24539064      1.65823025     -0.07482319
N       1.73817276      0.49273348      0.06396194
C       2.46300968     -0.75356792      0.18466907
H      -2.44937575      0.83812143      0.76243196
H      -3.63813150     -0.50791653      0.32047025
H      -1.91483192     -1.90165374     -0.51705517
H       0.26826079     -1.50832332     -0.42747600
H       0.37435405      2.45094444     -0.14427082
H      -1.02957773      1.69952153     -0.70866120
H       3.49347012     -0.53976119      0.46547008
H       2.04863609     -1.42681398      0.94836264
H       2.50548296     -1.31136788     -0.76283801
