11
b3lypvtz=-213004.48219906
N       1.93540171     -0.80598657     -0.00000812
C       0.68561770     -0.57315357     -0.00002242
C      -0.49290513     -1.43662769      0.00000267
C      -1.56539222     -0.63882869     -0.00000669
O      -1.27826129      0.70156159      0.00000141
C       0.11986974      0.82636239      0.00001610
N       0.72399197      1.92162428      0.00000709
H       2.11442405     -1.81070929     -0.00001396
H      -0.49740066     -2.51324676      0.00002764
H      -2.61800477     -0.87308448     -0.00001726
H       0.07542390      2.70836679      0.00000453
