14
b3lypvtz=-224614.59747499
C      -2.43370696     -0.61880948     -0.25751246
C      -1.06345047     -0.07106394      0.00693377
O      -1.02462025      1.14181803      0.64732437
N      -0.01679506     -0.68629173     -0.33058540
C       1.29066554     -0.21269296     -0.06499448
N       2.16981444     -0.91826149      0.52748353
N       1.61516021      1.01770440     -0.60764498
H      -3.01248776      0.07545824     -0.87199618
H      -2.35537813     -1.57025347     -0.77330393
H      -2.97469120     -0.76513147      0.68121945
H      -1.91774900      1.44044586      0.84934335
H       1.79005803     -1.83716541      0.73652858
H       0.90179158      1.72615058     -0.55017630
H       2.52922204      1.33320285     -0.32062032
