19
b3lypvtz=-192719.83678676
C      -3.04358547     -0.07917200     -0.24583557
C      -1.56046633      0.20299737     -0.45082922
N      -0.80579100     -0.14080199      0.74852416
C       0.63386487     -0.06455766      0.71624684
C       1.42825137     -1.05862971     -0.16310542
N       2.43601852      0.00749653     -0.38561503
C       1.44959954      1.05078390     -0.01478111
H      -3.61294466      0.16240060     -1.14452998
H      -3.44755879      0.52254637      0.57224073
H      -3.20439701     -1.12918999     -0.00049084
H      -1.18810723     -0.40522207     -1.27775837
H      -1.42893620      1.25251753     -0.75562660
H      -1.17111662      0.36161457      1.54675548
H       0.98461698     -0.14176807      1.74480032
H       1.80819059     -1.96290515      0.31542685
H       0.86986483     -1.34249422     -1.06231912
H       2.79335654      0.07021554     -1.33023001
H       1.85017701      1.86853965      0.58795748
H       0.90319504      1.47099580     -0.86633659
