14
b3lypvtz=-203687.44616659
C      -3.25007595      0.22123168      0.17876573
C      -2.13078110     -0.40603529     -0.18819385
C      -0.80984709      0.11988503      0.10065063
N       0.24818443     -0.49189226     -0.26846568
C       1.51036715      0.05671967     -0.03293948
C       1.85307228      1.34438828     -0.14640450
O       2.43922520     -0.89444900      0.26398227
H      -4.22781240     -0.18136961     -0.04645002
H      -3.21912908      1.16192892      0.71559253
H      -2.16312791     -1.34573100     -0.72676889
H      -0.75966947      1.06402429      0.65352397
H       2.88005425      1.64884824     -0.01793576
H       1.12051200      2.08760010     -0.41549393
H       1.99883569     -1.74986705      0.19162298
