13
b3lypvtz=-213762.18393749226
C      -1.80859637     -0.49030637      0.59158286
C      -0.53175532      0.14994666      0.11878421
N      -0.42973275      1.45169154      0.12399676
N      -0.33055479      2.57775165      0.12431195
C       0.60309321     -0.64431897     -0.34835288
O       0.51193229     -1.86054125     -0.35450076
C       1.85804141      0.06930138     -0.81035648
H      -2.53582573      0.25988728      0.89747705
H      -2.24280453     -1.09809605     -0.20307848
H      -1.60932717     -1.15200773      1.43529048
H       2.58530538     -0.67638287     -1.11898089
H       2.28335826      0.67723860     -0.00899877
H       1.64686609      0.73583612     -1.64943800
