11
b3lypvtz=-189636.94377938
C       4.17260670     -0.11595588      0.19323137
C       2.96630281     -0.13864537      0.17404629
C       1.60791023     -0.16700989      0.15199427
C       0.39590659     -0.17919933      0.13404497
C      -1.00966596     -0.28331681      0.09885479
N      -1.76279627      0.73791897      0.30958486
N      -3.09462129      0.57770836      0.19943339
H       5.23335101     -0.09281021      0.21057488
H      -1.43227053     -1.26929950     -0.11876091
H      -3.60791995      1.29145906      0.68911959
H      -3.46880335     -0.36084941      0.30523772
