14
b3lypvtz=-201274.24710181044
C      -1.51301511     -1.21806156      0.27158194
C      -0.63550708      0.00114485      0.20377746
N       0.67025529     -0.15638733      0.06938935
C       1.68678645      0.74194563     -0.01796524
C       2.98946364      0.26968132     -0.15768491
N       4.07514742     -0.12964774     -0.27422753
N      -1.10550827      1.32924206      0.27356398
H      -2.55082743     -0.91090191      0.38334137
H      -1.27418127     -1.86555769      1.12245179
H      -1.45388209     -1.83418441     -0.63235451
H       0.97720125     -1.12194390      0.02219567
H       1.44125407      1.78665864      0.02464819
H      -1.74042843      1.56593883     -0.48097961
H      -1.56675844      1.54207323      1.15137119
