14
b3lypvtz=-227009.32111718
C       0.31497646      1.68308807     -0.41403552
C      -0.14500841      0.33151640      0.01146522
C      -1.31440588     -0.24275930     -0.27014658
N      -1.70240682     -1.52875770      0.08964083
O       0.71056953     -0.38519968      0.89081683
C       1.92060887     -0.78467454      0.44750004
O       2.37153565     -0.62607248     -0.64900262
H       1.19955203      1.62761315     -1.05037643
H       0.56455312      2.30214799      0.45266592
H      -0.47691823      2.18474174     -0.96975287
H      -2.02003200      0.30080134     -0.88348015
H      -1.16951362     -1.92757403      0.84783514
H      -2.69380019     -1.64798247      0.22254691
H       2.44018948     -1.28698848      1.27442328
