13
b3lypvtz=-213759.08993928
C      -2.54097477      0.20218554     -0.10714800
C      -1.24763448     -0.11706793     -0.08959980
N      -0.69230463     -1.34588911      0.25271500
O      -0.31437495      0.84912269     -0.40541857
C       0.81570287      0.96709248      0.45299691
C       1.93407526      0.10735180      0.04013520
N       2.80330135     -0.56481028     -0.29975903
H      -2.84476290      1.22778801     -0.23896648
H      -3.29971654     -0.55851461     -0.00494896
H      -1.37626080     -2.04707763      0.49148536
H      -0.00450171     -1.69927956     -0.40013514
H       1.13702175      2.00649543      0.38836217
H       0.55746655      0.74108615      1.48905434
