18
b3lypvtz=-205205.42612205
C       1.58466693      1.23212305      0.50211279
C       0.84826307      0.23208310     -0.38500447
N       1.56141740     -1.05850174     -0.36233013
C      -0.56214266     -0.04255388      0.11205144
O      -0.58594219     -0.65349216      1.37583480
C      -1.67421332      0.90592369     -0.16134539
C      -1.63695186     -0.43691246     -0.87104181
H       1.07299547      2.19451262      0.50058916
H       1.62923424      0.86999737      1.52875278
H       2.60411810      1.39291211      0.14404539
H       0.77404801      0.65045151     -1.39771245
H       1.24073197     -1.65905580     -1.11301220
H       2.55795958     -0.92752442     -0.48325868
H       0.10704720     -1.32988742      1.33906802
H      -2.40556062      1.03145159      0.62443767
H      -1.46836063      1.79748666     -0.73897432
H      -1.41039418     -0.44771205     -1.92971856
H      -2.34240552     -1.18656978     -0.54218804
