11
b3lypvtz=-236291.62455675
N       1.68862396     -0.42623563     -2.16388960
N       1.48344847     -0.65345947     -0.96703803
C       0.23813913     -0.00661208     -0.48252266
O      -0.48358875      0.67132416     -1.20554077
C      -0.00945821     -0.26715091      0.90319826
C      -1.11937799      0.26269441      1.48824601
O      -2.00088414      1.01259142      0.86158952
H       2.56599983     -0.91146157     -2.40679264
H       0.67721985     -0.87478439      1.46854367
H      -1.35681817      0.09860677      2.53337546
H      -1.68340400      1.09458729     -0.07996923
