15
b3lypvtz=-193609.16083362
C      -1.39915637      0.84081191     -0.81283089
C      -0.90561826      0.02950458      0.12394055
C      -1.78235895     -1.04821130      0.67694668
O      -2.92895756     -1.24870068      0.35645801
C       0.47031748      0.08028881      0.68595322
C       1.60971701     -0.64558072     -0.00681815
C       1.58562231      0.85608362      0.04996847
H      -2.41139491      0.69802269     -1.16658180
H      -0.82266389      1.65008966     -1.23884349
H      -1.29575981     -1.68744927      1.44200048
H       0.49920512      0.02203770      1.76891941
H       2.32275371     -1.17775115      0.60706911
H       1.38918699     -1.11373286     -0.95606413
H       2.28578194      1.35466480      0.70537916
H       1.38342519      1.39002219     -0.86739663
