18
b3lypvtz=-181907.02413596
C      -2.38858830     -0.30361616     -0.02797098
C      -0.92639725     -0.36669574     -0.43909201
C       0.03857168     -1.35848018      0.28431245
C       1.07121772     -0.20764975      0.50273415
C       2.32829458     -0.26375044     -0.36234778
C      -0.01087501      0.76193278      0.01571641
N      -0.20624442      2.00623928      0.03659047
H      -2.87868036      0.55595939     -0.48624174
H      -2.48470161     -0.20182682      1.05484692
H      -2.92209201     -1.20596110     -0.33328728
H      -0.85223296     -0.48281495     -1.52454555
H       0.39245690     -2.20112631     -0.30831905
H      -0.37688914     -1.73504098      1.21879712
H       1.34925838     -0.04581752      1.54689748
H       2.98152615     -1.07748891     -0.04146462
H       2.89444292      0.66718860     -0.29560692
H       2.07888739     -0.42779875     -1.41266187
H       0.58630434      2.50069057      0.45158780
