13
b3lypvtz=-239685.47578628
C       3.13393526      0.24732741     -0.00037200
N       1.89006036     -0.49476575      0.00028918
C       0.66739739      0.05485441      0.00031247
N      -0.39805186     -0.67102464      0.00001973
C      -1.63074475     -0.06807193      0.00015660
N      -2.76579200     -0.60515306     -0.00027261
F      -1.60507840      1.29880131     -0.00006062
H       3.72884938      0.02321140     -0.88794902
H       3.73076657      0.02125876      0.88539914
H       2.91353439      1.31314651      0.00105701
H       1.92225589     -1.50313065     -0.00026950
H       0.65380270      1.14404265      0.00069931
H      -2.65323790     -1.61495542     -0.00025270
