15
b3lypvtz=-191213.5691262
C       2.54456762      0.33293232     -0.31026729
N       1.31441490      0.58525134     -0.42803518
C       0.36125878     -0.29521026      0.24074108
C      -0.80558675     -0.69111477     -0.68704067
C      -1.97065381      0.21781520     -0.23226615
N      -1.59396665      0.77174514      1.07654747
C      -0.38263851      0.49665649      1.30993938
H       2.93582690     -0.52203274      0.25569556
H       3.27101757      0.98325796     -0.79224208
H       0.86936233     -1.16713892      0.67550324
H      -1.05493936     -1.74156137     -0.53658672
H      -0.54153546     -0.55256073     -1.73342279
H      -2.91766963     -0.31513553     -0.14026497
H      -2.14160096      1.05547013     -0.91239671
H       0.11214304      0.84152573      2.21419583
