15
b3lypvtz=-191166.68002443
C      -2.04693674     -0.14420841     -0.27474134
C      -0.60463849     -0.51464527     -0.56174866
C       0.51016609     -0.10368719      0.45352257
C       1.50053186     -0.23631747     -0.70630736
N       2.66170996     -0.57408821     -1.04520555
C       0.31850318      0.50249663     -1.30829595
N       0.29583203      1.33766083     -0.02054549
H      -2.13001238      0.87668201      0.09015979
H      -2.47007077     -0.81776329      0.47321807
H      -2.64982237     -0.24111383     -1.17984602
H      -0.51056259     -1.53806385     -0.92564084
H       0.60350067     -0.35873935      1.50647980
H       3.16512942     -1.00623045     -0.27037847
H       0.19294100      0.94878232     -2.29074815
H       1.16372911      1.86923554      0.06516339
