15
b3lypvtz=-193628.95511797
C       1.97509807     -0.33600183     -0.19376473
C       0.48796094     -0.23933721     -0.06897893
C      -0.42529084     -1.22237255     -0.12842123
C      -1.80310723     -0.65232674      0.05162053
C      -1.55666361      0.81751556      0.22539744
C      -0.23190658      1.02988585      0.15213378
O       0.38741448      2.23901046      0.26319462
H       2.34933349      0.25468585     -1.03613238
H       2.28911571     -1.36669577     -0.35185276
H       2.48029673      0.02735239      0.70703889
H      -0.22139836     -2.27199191     -0.28171927
H      -2.30824970     -1.09669831      0.91774748
H      -2.44128593     -0.86984116     -0.81333597
H      -2.31969455      1.56242985      0.38128063
H       1.33827737      2.12428552      0.17579191
