13
b3lypvtz=-239680.60366467
C       0.42272463      0.38206974      0.07127624
C      -0.84777648      0.17184699      0.50651404
N      -1.68697270      1.19735480      0.91885434
N      -1.42093607     -1.08322116      0.57720084
N       1.11698861     -0.67708391     -0.48680007
C       2.30033972     -0.61280473     -0.88586675
F       3.06616453      0.51726951     -0.81786726
H       0.87882482      1.35947175      0.16845932
H      -1.24035457      2.09951167      0.97494832
H      -2.21651899      0.98467369      1.75276195
H      -2.38249788     -1.11847580      0.27074934
H      -0.84123471     -1.78777397      0.14296827
H       2.85124911     -1.43283857     -1.32361272
