16
b3lypvtz=-181133.97569953
C      -3.43798114      0.15761779     -0.00011916
C      -2.24746704     -0.44306157      0.00005617
C      -0.98681692      0.28283443      0.00001646
N       0.13321286     -0.32169219      0.00012747
C       1.32297539      0.44348495      0.00005409
C       2.50641941     -0.12961825      0.74829170
C       2.50644394     -0.12981917     -0.74799065
H      -4.36012047     -0.40677489     -0.00024253
H      -3.52522934      1.23783393     -0.00013422
H      -2.16636466     -1.52400955      0.00023684
H      -1.05163535      1.37973308     -0.00018480
H       1.21728299      1.52741003     -0.00008981
H       3.14758309      0.56709425      1.26994432
H       2.33838880     -1.06946282      1.25329910
H       2.33843140     -1.06979875     -1.25275283
H       3.14762405      0.56675476     -1.26980813
