19
b3lypvtz=-192719.17446306
C       2.50272981     -0.77112394     -0.03789402
C       1.01244826     -0.72769963      0.30834758
C       0.26634689      0.41385409     -0.39444295
N       0.70519047      1.69473340      0.15959400
N      -1.19810620      0.43117719     -0.30173334
C      -1.97652358     -0.76690328     -0.55378899
C      -1.90336138     -0.18013286      0.81327113
H       3.02940659      0.11246532      0.32637098
H       2.65852125     -0.83586479     -1.11743867
H       2.98277742     -1.63900649      0.41639348
H       0.89365603     -0.61218879      1.38709217
H       0.56201408     -1.68244990      0.02590930
H       0.46688449      0.32630402     -1.47404612
H       0.15604401      2.43449952     -0.26265233
H       1.67716367      1.87102712     -0.06223247
H      -1.46130701     -1.70857548     -0.71236201
H      -2.85885397     -0.62970909     -1.16771925
H      -2.73202148      0.39338686      1.20982648
H      -1.33901934     -0.73094325      1.55572201
