12
b3lypvtz=-247164.50489932
C       0.86526901     -0.20528243      0.08418217
N       0.03448572     -0.36135435      1.05727721
H       0.46415223     -0.87196548      1.82285708
N       0.44887067      0.35210435     -1.09207050
H       1.04869938      0.23984887     -1.88942492
H      -0.54357124      0.37312151     -1.25208487
N       2.23259696     -0.52675801      0.06651516
C       2.96614741     -0.06996788      0.99454500
O       2.60766742      0.72570099      2.02161687
H       1.63992029      0.84714738      1.98561277
O       4.27146297     -0.34858811      1.02082500
H       4.66029918      0.07359316      1.79734901
