11
b3lypvtz=-212973.29224854
C      -0.48347639     -0.92202288     -0.05789468
C      -1.73110631     -0.43458167      0.07601094
N      -1.77290149      0.99075795      0.22002284
C      -0.55146309      1.38850148      0.17548717
C       0.37845638      0.25221051     -0.00095361
N       1.64672498      0.43173602     -0.07060884
O       2.33959093     -0.74721830     -0.23505156
H      -0.16853474     -1.94265535     -0.18055583
H      -2.66192934     -0.98013276      0.08584402
H      -0.25541033      2.42510427      0.25784625
H       3.26004937     -0.46169926     -0.27014669
