16
b3lypvtz=-181101.34592853
C      -1.89374937     -0.38426914     -0.43145953
C      -1.56455642      0.40568697      0.82577997
C      -0.49039750      0.02195383     -0.13918494
C       0.70430408     -0.88303830      0.04363497
C       1.85998855     -0.09682523      0.60840604
C       1.47135780      0.09734202     -0.82831003
N       0.28099783      0.94431226     -1.00281748
H      -2.40086218      0.13512492     -1.23319703
H      -2.15919171     -1.42785747     -0.32233112
H      -1.87403798      1.44271215      0.85353077
H      -1.60749844     -0.09998361      1.78161282
H       0.69073771     -1.96196928      0.00321829
H       2.76599343     -0.66653569      0.77306537
H       1.68079525      0.69144645      1.33173039
H       2.14034794     -0.09191094     -1.65608892
H       0.39577100      1.87381106     -0.60758960
