17
b3lypvtz=-194315.82828703
C       0.52253697      1.50668879     -0.46851003
C      -0.78342856      1.43270432      0.44978740
C      -0.80452242     -0.08581639      0.05598522
C       0.67572745     -0.00826740     -0.09220620
C       0.68745554     -1.54243359     -0.41840199
C      -0.62043074     -1.57945966      0.49943363
O      -1.40884692     -0.13993746     -1.25896484
H       1.31854178      2.18188743     -0.15880614
H       0.25250153      1.68807396     -1.50362609
H      -0.54210611      1.61433973      1.49630548
H      -1.64216764      2.03361302      0.15157791
H       1.06366689      0.02937896      0.92906581
H       0.44050557     -1.78598795     -1.44651465
H       1.55106547     -2.11727883     -0.08805624
H      -1.40891286     -2.27912149      0.22314653
H      -0.36236444     -1.69920362      1.55090450
H      -2.35962151     -0.18837982     -1.12192029
