16
b3lypvtz=-204470.05714459
C      -2.80129404      0.36613119     -0.08788859
C      -1.60303755     -0.53211209     -0.39458484
C      -0.40286765     -0.23153418      0.48988287
C       0.42811467      1.04963118      0.18039117
C       1.61730483      0.09297670     -0.04821344
O       2.78553660      0.20985502     -0.30684855
N       0.81860245     -0.99714190      0.18281948
H      -2.55932392      1.41953708     -0.24179088
H      -3.12939891      0.24979345      0.94725821
H      -3.64717847      0.12409542     -0.73179387
H      -1.30383389     -0.42483930     -1.44083706
H      -1.88727665     -1.58020450     -0.25941684
H      -0.68232947     -0.30437778      1.54503923
H       0.57010808      1.74059131      1.00854976
H       0.11978547      1.59643765     -0.70920661
H       1.05022645     -1.97393023      0.28698395
