15
b3lypvtz=-191202.45589576
C      -1.48457142      0.65194437      0.44687849
C      -0.93087641     -0.13214606     -0.67691794
C       0.14252575     -1.18092647     -0.51612259
C       1.22635562     -0.75322464      0.48054499
N       1.62117855      0.65070936      0.39382310
C       0.77523130      1.49481053     -0.01996819
N      -0.54434321      1.28129474     -0.51736598
H      -1.11156590      0.46405506      1.44618337
H      -2.49824289      1.02845656      0.40019091
H      -1.58226362     -0.27654210     -1.53241292
H       0.60297225     -1.33602326     -1.49544083
H      -0.29334158     -2.13827901     -0.22037519
H       2.12098377     -1.36206592      0.34388372
H       0.89710417     -0.93676491      1.50784621
H       1.05885360      2.54480175     -0.04084714
