17
b3lypvtz=-215289.96329425
C      -2.63469264      0.23317579      0.72397658
C      -1.93288514     -0.29361981     -0.51714988
O      -0.61747972     -0.78836204     -0.23043295
C       0.43358297      0.07585056     -0.16675296
N       0.44821526      1.32722776     -0.35063131
C       1.69626573     -0.69798193      0.17101853
N       2.92270772      0.06980565      0.26382549
H      -2.69012794     -0.54339852      1.48697670
H      -3.65186152      0.54011296      0.47338043
H      -2.11463701      1.09205764      1.14771937
H      -2.46408880     -1.15315723     -0.92331843
H      -1.88226026      0.46355729     -1.30415706
H      -0.46329449      1.72021918     -0.56645117
H       1.81216045     -1.48404197     -0.57973921
H       1.51919872     -1.22058103      1.11491531
H       3.07949516      0.55690547     -0.61150040
H       2.80560551      0.80560123      0.95151996
