16
b3lypvtz=-227753.65781371
C      -2.85129455     -0.43528324     -0.15673952
N      -1.55820515      0.21662884     -0.19056853
C      -0.66341719     -0.11647417      0.63046093
C       0.67890482      0.56910537      0.59579880
O       0.75292591      1.46474180     -0.49550188
C       1.83430274     -0.42905906      0.48615261
O       1.78879077     -1.14451022     -0.73275408
H      -3.03965006     -0.90506464     -1.12351185
H      -2.93426042     -1.19456686      0.62999234
H      -3.62846795      0.31665858     -0.00959792
H      -0.80955791     -0.88902491      1.39523984
H       0.79721434      1.11603912      1.54467614
H      -0.14468472      1.48873588     -0.86998773
H       1.78061198     -1.16076477      1.29478680
H       2.77558920      0.12265114      0.59054415
H       1.68192218     -0.48221888     -1.42706710
