12
b3lypvtz=-202940.90378053
N       0.88366191      0.04887724     -0.04906851
C       0.36404068     -0.77426363      0.87593037
C       0.47907093     -2.08876710      1.16328466
C      -0.39579729     -2.35869389      2.31550464
C      -1.05124697     -1.26076852      2.75686394
C      -0.63085194     -0.15261590      1.89551684
O      -0.92201911      1.02223277      1.89525016
H       0.64769527      1.02624437      0.01390495
H       1.58948721     -0.24158605     -0.69983966
H       1.08075319     -2.83078692      0.66446726
H      -0.48856459     -3.34510124      2.74966796
H      -1.74252931     -1.17497113      3.57691740
