19
b3lypvtz=-192750.16675437
C      -2.92138684     -0.73453168     -0.02453771
C      -2.11237981      0.49106743     -0.44848305
C      -0.87013034      0.76082076      0.42287079
C       0.18764182     -0.30185793      0.34437872
C       1.48482244     -0.11895318      0.04320132
N       2.37838563     -1.17353966     -0.21224954
N       2.13946294      1.11438454     -0.05955539
H      -2.34083244     -1.65374135     -0.11537023
H      -3.81326340     -0.84975758     -0.64306256
H      -3.24814488     -0.64882641      1.01493376
H      -1.79763483      0.38046356     -1.48994284
H      -2.75960858      1.37264596     -0.41015699
H      -1.20689439      0.89364917      1.45973383
H      -0.45851451      1.72954871      0.12454529
H      -0.12222611     -1.31933046      0.55087827
H       3.23818779     -1.09138325      0.31560158
H       1.96111990     -2.08244604     -0.07974729
H       1.53293684      1.91413117      0.02410060
H       2.72689878      1.17950924     -0.87994357
