16
b3lypvtz=-181113.14699719
C       1.86063101     -0.12933817      1.74272991
C       1.31737827      0.56788745      0.74887408
C       0.22931511      0.08341657     -0.10286146
C      -0.04487034      0.61522591     -1.48973585
C      -1.13239118      0.70693485     -0.46396513
C      -1.74317839     -0.66864847     -0.23161739
N      -0.40087598     -1.22224678      0.12465461
H       2.67413783      0.27185691      2.33125944
H       1.49596783     -1.11740335      1.98986919
H       1.69025712      1.56054796      0.51557374
H      -0.13377095     -0.07806553     -2.32076451
H       0.44357293      1.55029992     -1.73280410
H      -1.54199392      1.64855446     -0.13052321
H      -2.42240531     -0.71419370      0.61998303
H      -2.22680700     -1.12721486     -1.09918892
H      -0.06496702     -1.94761317     -0.50148344
