20
b3lypvtz=-182671.73784723
C      -1.44216631      1.45050768     -0.11688978
C      -0.91824851      0.22826364     -0.03687194
C      -1.83063051     -0.97355784      0.02223537
C       0.59633982     -0.04209736      0.02028832
C       1.42809200      1.24178705     -0.07246480
C       1.01234224     -0.98244951     -1.12322497
N       0.98543739     -0.70068311      1.28794049
H      -2.51552794      1.59534384     -0.12821950
H      -0.84061172      2.34537788     -0.17640175
H      -1.61224843     -1.61118753      0.88214593
H      -1.73176183     -1.59828032     -0.86868680
H      -2.87239602     -0.66490690      0.09628247
H       1.20248606      1.92284866      0.74995621
H       2.48426501      0.98363413     -0.01039957
H       1.25110423      1.76936306     -1.00982635
H       0.51525201     -1.95087252     -1.05093509
H       2.08744910     -1.15666482     -1.07886381
H       0.76521454     -0.54840530     -2.09288884
H       0.55554556     -1.61404571      1.37081962
H       0.66705931     -0.15100604      2.07871379
