15
b3lypvtz=-191228.37361836
C       2.18714373     -1.22546399     -0.12693377
C       1.63305255      0.16239751     -0.23299725
C       0.42423542      0.60611171      0.12977857
N      -0.04860719      1.88820934     -0.17431850
C      -0.60992694     -0.24137450      0.84321455
C      -1.77551525     -0.55906203      0.01635016
N      -2.69400460     -0.82644280     -0.62219702
H       2.43908915     -1.62129866     -1.11508377
H       1.49732486     -1.93262283      0.33169547
H       3.11062727     -1.23875388      0.45890996
H       2.29306749      0.88734382     -0.70237166
H       0.64638992      2.51506622     -0.55038489
H      -0.59538287      2.33233825      0.54884670
H      -0.96658402      0.28780096      1.73364942
H      -0.17241453     -1.17365711      1.19296503
