14
b3lypvtz=-224607.27868767
N       1.98200026     -1.33660179      0.16508492
C       1.39844364     -0.21914077     -0.03818672
N       1.95798407      1.05679842      0.08167510
N       0.05881509     -0.20445929     -0.38815973
C      -0.84734071      0.83423208      0.02788218
C      -2.26130833      0.32384898      0.13889913
O      -2.58299443     -0.82289609     -0.03026107
H       2.98230058     -1.22139199      0.29793730
H       1.64456653      1.73478141     -0.59754204
H       2.96100339      1.05324682      0.17597569
H      -0.35185177     -1.12829968     -0.38290923
H      -0.58540996      1.26882188      1.00307837
H      -0.88118313      1.68230496     -0.67231674
H      -3.00843423      1.10064005      0.39425284
