17
b3lypvtz=-217672.35323146
C      -1.26767547      0.50960015     -1.24600707
C      -0.32722210      0.10501097     -0.13069949
C      -0.99365904     -0.53399805      1.06589177
C       1.05248560     -0.37033765     -0.56049504
O       1.77411418     -1.28667429      0.22713217
C       0.89493647      0.97846666      0.08684645
O       1.42959064      1.15347491      1.36437232
H      -2.00457371      1.23291567     -0.88813436
H      -0.73234951      0.96966960     -2.07858033
H      -1.80997674     -0.35455706     -1.63952904
H      -1.48375570     -1.47180174      0.78865314
H      -1.76185225      0.13030642      1.46726594
H      -0.28930878     -0.73704764      1.86930261
H       1.27122769     -0.43160022     -1.62206215
H       1.30049005     -2.12333008      0.26108780
H       0.99673233      1.86594485     -0.52692132
H       1.95089636      0.36395752      1.56197658
