11
b3lypvtz=-218005.65671457
C      -1.69059788      1.57395217     -0.00000081
C      -0.84043454      0.53615080     -0.00000064
C      -1.36926725     -0.80029543      0.00000061
N      -1.76326774     -1.88294102      0.00000839
C       0.61090033      0.68995235     -0.00000054
C       1.46450908     -0.32796201     -0.00000072
F       2.78708347     -0.12099712      0.00000097
H      -1.31994292      2.58958254     -0.00000273
H      -2.75990410      1.42669538     -0.00000290
H       0.99985294      1.70014216     -0.00000038
H       1.20400160     -1.37778783      0.00000175
