17
b3lypvtz=-215279.11813586
N      -2.90778605     -0.76181017     -0.29119440
C      -2.01380659      0.06218323      0.06508340
C      -0.62299525     -0.24686607      0.55300675
C       0.46813587      0.46099044     -0.25134645
O       0.28936023      1.85979888     -0.02138956
C       1.88848091      0.02715371      0.15135511
N       2.27456517     -1.34622453     -0.14831448
H      -2.57028599     -1.72454765     -0.20566150
H      -2.26186460      1.12316794      0.01543404
H      -0.52790049      0.08571357      1.59287406
H      -0.46206861     -1.32696796      0.52613401
H       0.32558188      0.23379373     -1.31790631
H       0.89824128      2.34937705     -0.58305884
H       2.01565190      0.20149366      1.22243723
H       2.59511253      0.69352599     -0.35416796
H       1.73505230     -2.01356049      0.38734798
H       2.14406852     -1.56378832     -1.12905508
