15
b3lypvtz=-212134.1862412
C      -2.10173906     -1.31419313     -0.07782050
N      -1.83289035      0.10790735     -0.00720185
C      -0.63102449      0.52028984      0.04573692
N      -0.34775250      1.87896199     -0.04993641
N       0.49645529     -0.30122163      0.15840771
C       1.81078657      0.03092327     -0.13620498
N       2.83854709     -0.70379313     -0.01968918
H      -1.50814447     -1.83277516     -0.84274939
H      -1.92654183     -1.81811904      0.88276568
H      -3.15196204     -1.46441482     -0.32344454
H      -1.20241303      2.41590635     -0.06098674
H       0.31768895      2.23185553      0.62287959
H       0.31400913     -1.26485607      0.39009404
H       1.92218074      1.04004687     -0.52165387
H       2.61529400     -1.62983723      0.34936851
