18
b3lypvtz=-181919.76389605
C      -1.84457344     -1.15388882      0.27241613
C      -0.73526729     -0.30765952     -0.35119219
C      -0.96542694      1.18655933     -0.28217245
N       0.02922686      1.90912889      0.02622035
C       1.19064718      1.02764843      0.23281642
C       0.64988672     -0.41828889      0.33038232
C       1.57504763     -1.48563083     -0.24357930
H      -1.60942327     -2.21776096      0.20827803
H      -1.98072068     -0.90333218      1.32645491
H      -2.79818571     -0.99790922     -0.23567040
H      -0.64876208     -0.58262952     -1.41169397
H      -1.92958076      1.63955094     -0.50629077
H       1.86682421      1.15285480     -0.62021492
H       1.74151146      1.34382553      1.11980800
H       0.47442378     -0.64003175      1.38820643
H       1.14019840     -2.48345473     -0.15582125
H       1.77663672     -1.30082475     -1.30145296
H       2.53390521     -1.50127375      0.27856160
