14
b3lypvtz=-180369.36506924374
C       0.99613979     -0.91237449      0.42831099
C       1.64169972      0.43841664      0.18210850
N       1.00523001      1.27583220     -0.52748321
C      -0.27523864      0.68825307     -0.91754808
C      -0.35863160     -0.75617669     -0.27883786
C      -1.51283218     -0.18355289      0.52626821
C      -1.44269320      1.03737143     -0.00694446
H       0.91018735     -1.11694155      1.49925218
H       1.60676450     -1.71454008      0.00475339
H       2.61127685      0.69835814      0.60181153
H      -0.44039046      0.79383544     -1.99047871
H      -0.60117215     -1.58131380     -0.94775209
H      -2.15635130     -0.62736111      1.27577555
H      -1.98398867      1.96019369      0.15076404
