17
b3lypvtz=-191970.78958996
C      -2.49823678     -0.76552474     -0.27349308
N      -1.67126029      0.18536217     -0.26409271
C      -0.74944622      0.29040472      0.85427547
C       0.71086771      0.48993233      0.39114335
C       0.87773912      1.77121898     -0.43774291
C       1.20381082     -0.71198704     -0.37864762
N       2.11522716     -1.52794473     -0.04968904
H      -2.55526403     -1.52628314      0.51541911
H      -3.20150309     -0.85393291     -1.09873092
H      -1.03731790      1.17672537      1.42769434
H      -0.81295677     -0.57841529      1.52453755
H       1.31528591      0.57086518      1.30045094
H       0.27737172      1.72660353     -1.34541380
H       1.92130841      1.91989750     -0.71724858
H       0.55207137      2.64183444      0.13438737
H       0.70696132     -0.88405159     -1.33674390
H       2.51580153     -1.27661874      0.85839943
