16
b3lypvtz=-204457.71501215
O      -2.42828608      0.26245245      0.54407108
C      -1.01442098      0.09869893      0.71834527
C      -0.25787801      1.34559425      0.35356956
C       0.88336068      1.31023882     -0.34822822
N       1.48059190      0.14445949     -0.79989624
C       1.03149283     -1.09897809     -0.18000637
C      -0.49194501     -1.09809452     -0.09239400
H      -2.56825276      0.63752690     -0.33289339
H      -0.91480124     -0.11339309      1.78714915
H      -0.67278650      2.29578904      0.66005266
H       1.39536734      2.22212312     -0.63028814
H       2.47239768      0.21031372     -0.95994101
H       1.46101090     -1.21528550      0.82566432
H       1.37594786     -1.93893625     -0.78432549
H      -0.84954940     -2.03172557      0.34285043
H      -0.90234923     -1.03078370     -1.10372959
