15
b3lypvtz=-247836.95257312
C      -1.97036828      0.34122748     -0.22174609
C      -0.58250282     -0.21648349     -0.42261784
C       0.01540002     -1.18680996      0.55555254
C       0.54681982      0.22151641      0.47153837
C       1.89658562      0.45797963     -0.11032636
F       1.99858648      1.73900998     -0.59317910
F       2.87129812      0.32739694      0.84660649
H      -2.72655064     -0.33361968     -0.62786203
H      -2.08232766      1.30817546     -0.71590288
H      -2.18663436      0.48195053      0.83892171
H      -0.31099947     -0.37971017     -1.45989478
H      -0.55749875     -1.44626828      1.43523211
H       0.63592735     -1.98861324      0.17798291
H       0.30854508      0.89817617      1.28316323
H       2.14371948     -0.22392775     -0.92842733
