14
b3lypvtz=-203674.28689759
N      -2.14804817     -0.37842000     -0.42305401
C      -0.78983305      0.03648543     -0.65764234
C      -0.01571744      0.43297095      0.54089443
C       1.37593289      0.92351558      0.12376349
C       1.62127202     -0.49571928     -0.44795591
O       2.60932711     -1.05678935     -0.83164953
C       0.24243703     -0.95307331     -0.11344841
H      -2.47156383     -0.99716158     -1.15667898
H      -2.76862017      0.42198744     -0.40323562
H      -0.56119309      0.53631859     -1.59913290
H      -0.48927357      0.59776390      1.49587533
H       2.05334169      1.10909739      0.95741618
H       1.41808976      1.76318493     -0.57209165
H      -0.07625117     -1.93996069      0.18713993
