12
b3lypvtz=-231222.56762259
C      -3.42597227     -0.29126828     -0.00052731
C      -1.99539917     -0.04499125     -0.00132218
C      -0.81227355      0.18112372     -0.00070129
C       0.61483753      0.42897816     -0.00156242
O       1.09838177      1.53510453     -0.00458197
C       1.45357291     -0.84218919      0.00159718
F       2.79547260     -0.55862960     -0.00127507
H      -3.69190677     -1.04144684     -0.74742997
H      -3.74977717     -0.66074252      0.97456715
H      -3.98020637      0.62283806     -0.21838260
H       1.20642650     -1.43755277     -0.88286282
H       1.20890698     -1.43129801      0.89093529
