21
b3lypvtz=-193494.71413092
C      -3.46181420     -0.56947916      0.13776729
C      -2.06198223     -0.36726957     -0.42553502
N      -1.32042008      0.61818063      0.35687365
C       0.00697168      0.94162360     -0.16025513
C       1.05952069     -0.08097014      0.26543803
N       2.36829793      0.27317600     -0.26807945
C       3.41223515     -0.68568863      0.06286212
H      -3.41446757     -0.88618661      1.18012554
H      -4.00468030     -1.32523734     -0.43145380
H      -4.04110325      0.35637871      0.09309471
H      -2.12632756     -0.08613901     -1.49035586
H      -1.51954486     -1.31475432     -0.39148554
H      -1.87151045      1.46411925      0.42710853
H       0.29254143      1.91854270      0.24043258
H       0.02850980      1.02815436     -1.25717418
H       0.79868584     -1.06682425     -0.12883211
H       1.04309535     -0.16854125      1.36341849
H       2.63353655      1.19137174      0.06894076
H       4.37154241     -0.32995268     -0.31444546
H       3.51812176     -0.88274038      1.14168109
H       3.19921991     -1.63936664     -0.42504424
