17
b3lypvtz=-194373.93916582
C       2.55720247     -0.86098811     -0.00039375
C       1.32003449     -0.02024542      0.00023628
O       1.53138498      1.34390174      0.00095477
C       0.07307752     -0.49432520     -0.00005057
C      -1.15084010      0.32791185      0.00023904
C      -2.38057903     -0.13832962     -0.75019959
C      -2.38069540     -0.13857880      0.75028870
H       3.17170943     -0.65369163     -0.88292328
H       2.31215743     -1.92095523     -0.00119114
H       3.17178110     -0.65505295      0.88241012
H       2.47580209      1.52022712      0.00192440
H      -0.04838176     -1.57077945     -0.00061231
H      -0.97741268      1.39476835      0.00062831
H      -2.97130241      0.60583249     -1.26660117
H      -2.32253965     -1.09180882     -1.25799358
H      -2.32288945     -1.09222447      1.25781108
H      -2.97135703      0.60559417      1.26674369
