17
b3lypvtz=-215282.22600831
N      -2.60069138     -0.15266973     -0.23038575
C      -1.37918863     -0.79536248     -0.07425202
C      -0.21205647     -0.26001318      0.31148193
C       0.99847450     -1.13454078      0.48107427
N       2.06901564     -0.73703634     -0.46544004
C      -0.00438603      1.20914380      0.57351219
O       0.80177271      1.85260086     -0.41374285
H      -2.56062601      0.84228486     -0.38565510
H      -3.24193916     -0.60566349     -0.86022364
H      -1.43825501     -1.86772023     -0.23169769
H       1.41519605     -1.00449707      1.48561500
H       0.71617221     -2.19053756      0.38759891
H       1.81509031     -1.01220285     -1.40793559
H       2.94192636     -1.20039369     -0.24038088
H      -0.94987459      1.75309517      0.60205586
H       0.44992569      1.33120508      1.56844097
H       1.54886181      1.25058564     -0.56610655
