21
b3lypvtz=-172602.50027844
C      -2.35017196     -0.53161463     -0.44658245
C      -1.08482998     -0.26260154      0.34827528
C      -0.00000073     -1.36575768      0.44919228
C       1.08482980     -0.26260283      0.34827501
C       2.35017126     -0.53161739     -0.44658304
C       0.00000041      0.68239792     -0.24024520
C       0.00000137      2.15191845      0.14169792
H      -2.96021038      0.36994650     -0.54403625
H      -2.96738803     -1.29499979      0.03345805
H      -2.11233242     -0.88284087     -1.45366388
H      -1.34711582      0.08160342      1.35339724
H      -0.00000123     -2.00172132     -0.43991487
H      -0.00000099     -2.00471513      1.33261312
H       1.34711628      0.08160183      1.35339691
H       2.11233106     -0.88284374     -1.45366428
H       2.96738677     -1.29500298      0.03345750
H       2.96021049      0.36994314     -0.54403733
H       0.00000021      0.58229151     -1.33149840
H       0.88061911      2.66735336     -0.24975415
H      -0.88061548      2.66735463     -0.24975448
H       0.00000126      2.27259612      1.22791098
