15
b3lypvtz=-193609.33614722
C      -1.92778125     -1.25827808     -0.08278559
C      -1.06637476     -0.25710337     -0.01220527
C      -1.02342369      1.16348460     -0.54566740
C       0.17433884      1.45153058      0.40895691
C       0.25418704     -0.05984892      0.74064049
C       1.38297351     -0.81869546      0.08178800
O       2.27371414     -0.32178708     -0.55663395
H      -1.76104180     -2.19185172      0.43977015
H      -2.83996310     -1.17538041     -0.66076387
H      -1.92574139      1.75551460     -0.39374924
H      -0.74899633      1.21655926     -1.60090160
H       1.06941873      1.85827541     -0.05442832
H      -0.10084148      2.05633475      1.27022278
H       0.22368956     -0.34809408      1.79517823
H       1.32130097     -1.91963907      0.20732869
