14
b3lypvtz=-229597.19102709
C       3.42721573     -0.04805738      0.19157923
N       2.13201770      0.45753848     -0.22566482
C       1.00768067     -0.31489266     -0.11262504
C      -0.26280459      0.12912991     -0.04115789
N      -1.29509480     -0.79896354     -0.01953894
C      -2.50271116     -0.48309514      0.03370558
F      -2.96107930      0.80456032      0.07013881
H       3.54215949     -0.10649874      1.28079442
H       4.21340091      0.59330504     -0.20483663
H       3.57466189     -1.04729869     -0.21884563
H       1.99528295      1.44826473     -0.09845573
H       1.18076750     -1.38480418     -0.12459231
H      -0.48799807      1.19145929     -0.01413196
H      -3.32279191     -1.18691944      0.05785591
