15
b3lypvtz=-193598.00657662
C       3.36780435     -0.75057007     -0.01743162
C       2.11664900     -0.00863640     -0.03274876
C       1.07643179      0.60047113     -0.04619090
C      -0.12083050      1.36465050     -0.06927487
C      -1.35718721      0.88102376      0.09643458
C      -1.70614135     -0.54592888      0.35880170
O      -2.91362545     -0.84313421     -0.34464507
H       3.52888580     -1.26913816     -0.96541344
H       4.21758944     -0.08459721      0.14524126
H       3.37336662     -1.50051069      0.77652775
H       0.00023312      2.43086672     -0.22969413
H      -2.19867814      1.56294358      0.05978398
H      -0.88654871     -1.19985538      0.04525318
H      -1.85010339     -0.68868857      1.43967525
H      -3.19022837     -1.73312412     -0.10955091
