20
b3lypvtz=-182659.528546
C      -2.75621604     -0.17319191      0.18806583
C      -1.42768685     -0.61476118     -0.42675251
C      -0.22272657      0.01048416      0.25462507
C       0.07664509      1.51794161      0.06281365
C       1.55141734      1.09084615     -0.08910907
N       1.09623889     -0.28693248     -0.34887039
C       1.87733269     -1.38213669      0.17765830
H      -3.60113289     -0.63774052     -0.32205440
H      -2.81605244     -0.44697160      1.24392807
H      -2.88485487      0.90920201      0.12004187
H      -1.39416362     -0.35663311     -1.48831000
H      -1.34109249     -1.70447357     -0.37033219
H      -0.23484616     -0.23843610      1.32956482
H      -0.34599420      1.90628620     -0.86323735
H      -0.16595843      2.18738460      0.88416057
H       2.10425114      1.18655346      0.85729191
H       2.14318548      1.54040303     -0.88875720
H       2.84374630     -1.42646538     -0.32844653
H       1.36597290     -2.32899377     -0.00473998
H       2.06320775     -1.29475590      1.26283951
