18
b3lypvtz=-205198.07648636
C      -2.99911385     -0.83174096     -0.03217696
N      -2.37566212      0.25992694     -0.11678204
C      -1.04898024      0.34197275      0.47453876
C      -0.01908308      0.76707306     -0.57319047
C       1.37368338      0.98002524      0.01480561
O       1.93740037     -0.17830984      0.61548404
C       2.46522994     -1.11361055     -0.30219475
H      -2.59497862     -1.72132277      0.46842806
H      -3.99190218     -0.91735637     -0.46921587
H      -1.08907689      1.10643923      1.25703591
H      -0.74417038     -0.60051928      0.94757682
H      -0.34693497      1.70144453     -1.03585847
H       0.01337889      0.02416878     -1.37415185
H       1.32716552      1.72546483      0.81196469
H       2.05008108      1.36428119     -0.75999840
H       2.93531511     -1.90332330      0.28159559
H       3.22181962     -0.65280697     -0.94998686
H       1.69341243     -1.56307951     -0.93712682
