13
b3lypvtz=-190408.74373551
C       2.81219029     -0.99081861     -0.00001205
C       1.81125915     -0.32645764     -0.00000998
C       0.59837649      0.43055350     -0.00000524
C       0.59160461      1.77149086     -0.00000742
N      -0.54513450     -0.37385765      0.00000506
N      -1.77233738      0.16081279      0.00000425
C      -2.78283682     -0.61558233     -0.00000003
H       3.70832970     -1.55979866      0.00000148
H      -0.33563711      2.32146929     -0.00000317
H       1.52640582      2.30704927     -0.00001370
H      -0.42519024     -1.37945280     -0.00000922
H      -3.76491766     -0.16504892      0.00000100
H      -2.70265835     -1.70512611     -0.00000398
