10
b3lypvtz=-223049.11907469126
C       1.64732195     -0.28733565      0.28817232
C       0.47587462      0.31998522      0.11818513
C      -0.84934966     -0.21813964     -0.18027847
N      -1.70832035      0.73276080     -0.26117577
N      -0.95505719      1.94277561     -0.01328774
N       0.26146498      1.71891757      0.19856463
O      -1.09754894     -1.51599761     -0.33991865
H       2.53422769      0.29109308      0.50690329
H       1.73271252     -1.36234680      0.21114560
H      -2.04132562     -1.62171258     -0.52831036
