13
b3lypvtz=-216159.79497668
C       2.53228638     -0.19947413      0.01909089
C       1.30783919      0.14736276     -0.35484522
C       0.07136488     -0.07916875      0.47095395
C      -0.93696956      1.05997098      0.41159166
O      -0.79602248      2.05303740     -0.24909813
C      -0.59376587     -1.39442655      0.04861504
O      -1.70512040     -1.48286947     -0.39791576
H       2.73450170     -0.64389589      0.98675904
H       3.38333751     -0.03932015     -0.62905613
H       1.13895186      0.60563972     -1.32166802
H       0.35149305     -0.22002168      1.52387689
H      -1.83547143      0.91080612      1.03897191
H       0.05649317     -2.28274535      0.17045887
