15
b3lypvtz=-193622.81559665
C      -1.66149250     -1.34019002      0.00707618
C      -0.47575880     -0.73726576      0.10651789
C       0.84863664     -1.32314821     -0.06820446
C       1.79659727     -0.37914541     -0.10723531
C       1.21972309      1.00465233      0.01353654
C      -0.26457711      0.74920693      0.39097277
O      -1.20484386      1.61410232     -0.22532648
H      -1.74336995     -2.39704137     -0.21095290
H      -2.58118485     -0.78513493      0.13652786
H       1.01765035     -2.38590971     -0.17626537
H       2.85299651     -0.56759440     -0.24288636
H       1.73751373      1.62481988      0.74782513
H       1.27476380      1.54295289     -0.93929438
H      -0.39146693      0.92267796      1.46195604
H      -1.30365239      1.34087349     -1.14416513
