18
b3lypvtz=-181881.48299435
C       2.16650286      0.32212034      0.56046769
C       1.23372020     -0.32688991     -0.45064682
C       0.39423723     -1.57556145     -0.06490401
N      -0.88844571     -0.94286689     -0.53712107
C      -0.09934892      0.33974541     -0.78503666
C      -1.08401902      0.24687550      0.30881670
C      -2.42568837      0.91478581      0.16251879
H       3.01656371     -0.32800334      0.78023527
H       1.65890392      0.53263382      1.50313214
H       2.56296545      1.26518902      0.17717683
H       1.78224553     -0.53047618     -1.37133544
H       0.37736979     -1.84045921      0.99549181
H       0.61759362     -2.46537123     -0.64975375
H      -0.28608549      0.95267170     -1.65954400
H      -0.71428183      0.18548045      1.32946614
H      -2.38770875      1.94584430      0.52028464
H      -2.73770450      0.92256516     -0.88212781
H      -3.18681975      0.38171667      0.73504332
