17
b3lypvtz=-194370.08355308
C      -0.28573711      0.93660135      1.06387401
O      -1.69654208      0.72128724      0.93656445
C      -1.94525815     -0.23285686     -0.09980270
C      -0.73496241     -0.15042083     -1.02685331
C       0.37799346      0.10361073     -0.02490901
C       1.81471503      0.28148569     -0.40282589
C       1.37468729     -0.97059033      0.31907817
H       0.04524793      0.64777125      2.06621993
H      -0.09134970      2.00619037      0.93320908
H      -2.88809215      0.03135144     -0.57886122
H      -2.04219569     -1.23912607      0.32678582
H      -0.83959368      0.69560298     -1.71132755
H      -0.58379446     -1.05432360     -1.61689418
H       2.40210681      1.00354076      0.14989443
H       2.08288680      0.20033944     -1.44803879
H       1.66485398     -1.08458862      1.35540687
H       1.34493414     -1.89587495     -0.24152011
