13
b3lypvtz=-239450.42554031
O      -2.75688566      1.66833286      0.34129083
C      -1.75483124      1.05725165      0.60060313
C      -1.58514307     -0.42577613      0.31663086
O      -0.26498174     -0.88251033      0.54401042
C       0.62689465     -0.56272789     -0.45592790
C       1.88264908     -0.24127761     -0.16733457
O       2.81702885     -0.08539314     -1.15838602
H      -0.88544295      1.53410409      1.09779322
H      -2.23243864     -0.97546808      1.00366743
H      -1.92234289     -0.63958287     -0.70375744
H       0.27468188     -0.66334839     -1.47795279
H       2.21390522     -0.14675217      0.86019893
H       3.58700651      0.36314801     -0.80083610
