12
b3lypvtz=-252149.38739891
C       0.70578978     -0.42979245     -0.23140929
C       2.01564816     -0.27598086      0.00852804
O       2.59234352      0.83831166      0.45057753
F       2.90139548     -1.24517713     -0.17773040
N      -0.08399384      0.69618926      0.00232278
C      -1.35424789      0.67922431     -0.12321355
N      -2.15411009     -0.37085273     -0.51682665
H       0.34702425     -1.37574233     -0.61718853
H       1.85796367      1.47552388      0.53221327
H      -1.89653788      1.60344694      0.05353096
H      -3.13762041     -0.28854944     -0.32449514
H      -1.79365476     -1.30660113     -0.43040313
