12
b3lypvtz=-249763.41826689
C       1.04637596     -0.23797538     -0.01435769
N       1.24922394     -1.49008814      0.11007681
N       1.98666290      0.77819930      0.07226078
N      -0.22704586      0.28255584     -0.29866768
C      -1.25591055     -0.04546008      0.34577177
N      -2.51305883      0.38691771      0.06941504
F      -1.26137689     -0.81255036      1.44910087
H       2.23689380     -1.68941321      0.25629383
H       1.72581988      1.64335749     -0.37183394
H       2.94752403      0.51130203     -0.06422463
H      -2.65625914      0.79031805     -0.83965750
H      -3.27884922     -0.11716326      0.48074153
