18
b3lypvtz=-205190.30884151
C       2.17898625     -1.03338208      0.03763094
O       0.84447621     -0.66382003      0.31918680
C       0.36108873      0.45882860     -0.41465682
C       0.87242371      1.78135720      0.15337505
C      -1.15487436      0.40373223     -0.40764627
C      -1.90592240     -0.12088543      0.75334924
N      -1.86030065     -0.87470434     -0.51596558
H       2.89737808     -0.27048928      0.35500309
H       2.37937589     -1.94916752      0.59123785
H       2.32301294     -1.22604870     -1.03237943
H       0.69825761      0.36060149     -1.45734399
H       0.46001302      2.62080290     -0.40918141
H       0.57202512      1.88366765      1.19666096
H       1.95905224      1.84989300      0.09602041
H      -1.60541666      1.20084439     -0.99031290
H      -2.87331594      0.29625426      1.00347869
H      -1.33432504     -0.50442337      1.58823665
H      -1.17746575     -1.62026796     -0.41268429
