14
b3lypvtz=-226998.25703329
C       2.46542651      0.24146110      0.06762951
N       1.36398576     -0.62624090     -0.35139489
C       0.14810734     -0.45888755      0.39577429
C      -1.04655409     -1.36441868      0.04902196
O      -1.89831113     -0.18637470     -0.15465435
C      -0.84805226      0.67762833      0.05675226
O      -0.84569741      1.86022135     -0.05977681
H       2.24185165      1.31242409      0.00619733
H       2.73077683      0.00785328      1.10044380
H       3.33604264      0.03189060     -0.55307938
H       1.19001123     -0.51666448     -1.34339393
H       0.38286175     -0.45759046      1.46152675
H      -0.93711983     -1.92478244     -0.87775881
H      -1.44031300     -1.99581555      0.84182926
