13
b3lypvtz=-237061.38869017
C      -1.06471299      0.05561293      0.65234618
C      -0.19772028      0.39364258     -0.29879056
O      -0.36315144      0.02337718     -1.60976123
O       0.91422752      1.17753908     -0.03966343
C       2.14420857      0.54907402      0.03407027
N       2.41925822     -0.67176328     -0.01831890
N      -2.30505954     -0.54394467      0.42104384
H      -0.83560671      0.31415093      1.67544720
H      -0.24150778      0.79626412     -2.17539591
H       2.90927226      1.30793882      0.16323760
H       1.58824330     -1.25171529     -0.14107924
H      -2.57489470     -1.21146606      1.12726366
H      -2.39255646     -0.93871036     -0.50407062
