14
b3lypvtz=-224610.08682394
C      -0.68789229      0.56291334     -1.80365502
C       0.00417135      0.00626802     -0.59740537
N      -0.18280441      0.40274322      0.60785892
N      -1.03542987      1.43387587      0.83851650
C       1.01184542     -1.09158752     -0.80549037
N       1.61003667     -1.55699969      0.31916888
O       1.25285482     -1.52623233     -1.92196302
H      -0.32265853      0.06341214     -2.69612287
H      -1.77217475      0.41665944     -1.74616266
H      -0.50692054      1.63786052     -1.89283137
H      -1.34314923      1.44636507      1.79737310
H      -1.78830200      1.56380847      0.17161936
H       1.42122272     -1.11840191      1.20293401
H       2.33920065     -2.24058465      0.22615990
