17
b3lypvtz=-191962.50093027
C      -0.82895801      1.20510865     -0.27310249
N      -1.85573806      0.15756699     -0.16711518
C      -1.12050261     -1.12020501     -0.10669885
C       0.27046850     -0.80716879      0.48989160
N       1.40266866     -0.79522211     -0.47726196
C       1.74114623      0.60338033     -0.11529425
C       0.36781064      0.73825992      0.58028449
H      -0.52522006      1.29422353     -1.31998675
H      -1.23681047      2.16685676      0.03699583
H      -2.36682298      0.28569594      0.69839081
H      -0.98256429     -1.51427625     -1.11596756
H      -1.68793141     -1.85033199      0.47114003
H       0.47461928     -1.35052314      1.41645424
H       2.13222988     -1.47446386     -0.30557147
H       2.57443786      0.69748215      0.58761802
H       1.93020615      1.25660264     -0.97146786
H       0.36876568      1.18602424      1.57224836
