13
b3lypvtz=-239627.86513294
C      -0.70531677      1.40261363     -0.14748525
N       0.13830339      0.25364696      0.10384405
N      -0.32447194     -0.99562570      0.21763630
C      -1.58168783     -1.23577756      0.19064769
N       1.48120404      0.46458150      0.03736092
C       2.28933436     -0.49117825      0.14863989
F       3.59984013     -0.20685601      0.08867619
H      -0.06092552      2.27153452     -0.21658892
H      -1.26391505      1.28617211     -1.08261500
H      -1.42024792      1.54385042      0.66761229
H      -1.88091898     -2.26879885      0.30001587
H      -2.35453040     -0.48207125      0.07133556
H       2.08333245     -1.54209153      0.29305510
