14
b3lypvtz=-226983.58482012
N       1.58956010     -1.20986510     -1.07389002
C       1.22093114     -0.30599321     -0.27767402
O       2.11464611      0.55027228      0.31401668
C      -0.21619447     -0.06804974      0.07987944
C      -0.91539947      1.15502377     -0.57580307
O      -1.93948435      0.31615970     -1.13744770
C      -1.28975385     -0.88762410     -0.65131498
H       2.60170979     -1.20387542     -1.19336702
H       1.66085718      1.15441621      0.91231894
H      -0.32435352     -0.08128960      1.16653507
H      -1.32633274      1.89872712      0.11134519
H      -0.32564357      1.65847743     -1.34724289
H      -0.89520863     -1.50104695     -1.46019503
H      -1.95533372     -1.47543240     -0.01726060
