17
b3lypvtz=-220269.89027622
C      -1.35783568     -1.21325362     -0.08169344
C      -0.50389707      0.03951231     -0.23529143
C      -1.26073321      1.29290791      0.18529454
F      -2.35523390      1.49305893     -0.65812722
N       0.68620922     -0.04941884      0.61113685
C       1.80454194     -0.82178484      0.08628118
C       1.87650591      0.66012092      0.15204804
H      -2.27949386     -1.11645906     -0.65443727
H      -0.82334400     -2.09437392     -0.43855469
H      -1.61157490     -1.37099214      0.96784371
H      -0.22790691      0.15846832     -1.29596350
H      -1.63283072      1.19467273      1.20674232
H      -0.62495171      2.17733407      0.11663501
H       2.33690189     -1.43116987      0.80540779
H       1.69660592     -1.26620275     -0.89830448
H       1.81545542      1.19817044     -0.78923325
H       2.46158166      1.14940942      0.92021586
