15
b3lypvtz=-240220.13636052
O      -2.13691999      1.22078754      0.42123975
C      -1.91064613     -0.13288064      0.24306479
C      -0.68483978     -0.65399925      0.30611582
O      -0.43113511     -1.97582460      0.01070713
C       0.55514789      0.09376175      0.67058946
C       1.48887023      0.31208016     -0.51697470
O       2.65260518      0.97408565     -0.02509120
H      -2.88041514      1.34109003      1.02002876
H      -2.77335664     -0.73786473     -0.02580067
H      -1.24734098     -2.41000590     -0.26079779
H       1.09800733     -0.47211111      1.43241734
H       0.28234542      1.05913523      1.09248984
H       0.98181676      0.92049427     -1.27457498
H       1.74621937     -0.65129261     -0.96835323
H       3.25954159      1.11244421     -0.75726033
