16
b3lypvtz=-227754.99859437
C      -2.18169268      1.13164438      0.11674598
C      -1.33709403     -0.11290535      0.29793231
O      -1.73264951     -1.17136050     -0.54694296
O       0.00865783      0.26074798      0.07627695
C       0.95880427     -0.73419075      0.39846430
C       2.34671186     -0.24123854      0.09252898
N       2.67399070      0.87926087     -0.38851922
H      -2.05267933      1.52447010     -0.89419173
H      -1.88061587      1.90466604      0.82266444
H      -3.23266922      0.89376023      0.27312522
H      -1.44088203     -0.52146801      1.30883924
H      -1.76066426     -0.83934990     -1.45237982
H       0.77075746     -1.65559006     -0.16487794
H       0.90073751     -0.99643286      1.46552634
H       3.13670546     -0.96076956      0.32285952
H       1.83567786      1.44233992     -0.55044161
