13
b3lypvtz=-239461.83339271
C       1.80480183      1.30699966      0.07644015
C       1.02579874      0.05718880     -0.30209125
O       1.88106818     -1.06263388     -0.10073666
C      -0.20952593     -0.08032646      0.54879444
O      -1.21366210     -1.14448096      0.04784886
C      -1.55146371      0.14351569      0.05155222
O      -2.47701654      0.81934435     -0.25182278
H       2.11662155      1.26095462      1.12049656
H       1.20148093      2.20231554     -0.07400325
H       2.69768785      1.37697802     -0.54295060
H       0.72024596      0.11680703     -1.35302536
H       1.41957053     -1.85697060     -0.39170100
H      -0.04345229     -0.16810881      1.61755368
