12
b3lypvtz=-223793.50306033
C      -2.42080280      0.13143879      0.69232540
N      -1.94642123     -0.35809172     -0.37239213
C      -0.57270004     -0.35528370     -0.58665832
N       0.24119311     -0.87137640      0.24061849
C       1.60957108     -0.87442263      0.00696775
N       2.39822100      0.11140625     -0.19082786
O       1.71325054      1.34038596     -0.30121259
H      -1.79881374      0.61923914      1.44618407
H      -3.49112445      0.07234359      0.87075724
H      -0.28158259      0.04810071     -1.55600154
H       2.10893113     -1.83022782      0.11849613
H       2.44027798      1.96648785     -0.36825663
