15
b3lypvtz=-214500.23559953
C      -3.26416335     -0.07587695      0.00032844
C      -1.78468612     -0.45603473     -0.00023827
C      -0.87365122      0.73516073     -0.00017697
N       0.39694310      0.74837710     -0.00010892
O       0.91037599     -0.56957228     -0.00010941
C       2.29030513     -0.59939707      0.00004216
N       3.11465363      0.34224585      0.00018516
H      -3.89274373     -0.96608266      0.00023749
H      -3.52291124      0.51307066     -0.88140108
H      -3.52237320      0.51251221      0.88258784
H      -1.54162731     -1.07548275      0.86751845
H      -1.54217790     -1.07494903     -0.86853849
H      -1.30641670      1.73213921     -0.00020047
H       2.59062783     -1.64349059      0.00001339
H       2.64100210      1.24477730      0.00018370
