10
b3lypvtz=-223059.89368218704
C      -1.73603884      0.98973710     -0.03210235
N      -0.49646193      0.72948574     -0.06113856
C      -0.15909353     -0.68046516     -0.03772076
O      -0.96085082     -1.58990845      0.00598493
C       1.26590756     -0.89541766     -0.07272352
N       2.09894602      0.11832258     -0.11991743
N       2.82964638      0.96812794     -0.16040755
H      -2.05273198      2.02915953     -0.04743611
H      -2.49752359      0.20851816      0.00774572
H       1.70820072     -1.87755980     -0.06213016
