16
b3lypvtz=-204451.30664695
C       2.36522973      0.02643133      0.19957814
C       0.95416026     -0.02589001     -0.37796499
C       0.14172308     -1.18203901      0.19220927
O      -1.20713223     -1.12253668     -0.26060275
C      -1.84244000      0.06672210      0.15445374
C      -0.94324543      1.27198808      0.09556530
N       0.29600783      1.27144726     -0.15585007
H       2.33547833      0.16531984      1.28202595
H       2.91278086      0.86434826     -0.22995790
H       2.91154117     -0.89429640     -0.01424414
H       1.02517627     -0.15454355     -1.46321805
H       0.17419684     -1.15417553      1.29101648
H       0.53283333     -2.14496450     -0.13498439
H      -2.24006516     -0.03082639      1.17843881
H      -2.70032204      0.22150220     -0.50472355
H      -1.42520085      2.23225000      0.29248517
