16
b3lypvtz=-204433.41529136
C      -1.86348276      0.01477290      1.37490834
C      -1.45034814      0.12384992      0.11796096
O      -2.26788662      0.67246276     -0.84238609
C      -0.10065459     -0.29582416     -0.38169601
C       0.99388520      0.79081610     -0.61859166
C       1.97000661     -0.21510813      0.02873069
N       0.80366523     -0.94144091      0.58512648
H      -2.85299774      0.33647375      1.66524388
H      -1.19292771     -0.38989218      2.11522474
H      -1.84741054      0.60061779     -1.70515925
H      -0.24442426     -0.88897449     -1.30099500
H       0.82365131      1.67108075     -0.00295779
H       1.19188243      1.08914532     -1.64530076
H       2.66306456      0.16544357      0.77979330
H       2.53485631     -0.78108447     -0.72019362
H       0.83932070     -1.95223852      0.55039178
