14
b3lypvtz=-203611.28807768
C       0.91481315      0.02320120      0.99228293
C       0.62300682      1.48276775      0.87307554
C       0.12355495      2.48927530      1.95812972
C       0.37518716      3.32498873      0.67843867
C      -0.67241472      2.21474835      0.36673806
O      -1.29387437      2.26568779      1.68656419
N       1.57407718      2.50449422      0.31218987
H       1.05159431     -0.43363241      0.00997722
H       0.08487080     -0.48009612      1.49092784
H       1.82336003     -0.13932328      1.57383075
H       0.45514286      2.64650279      2.98080332
H       0.30464706      4.40090573      0.53991976
H      -1.29867625      2.04328204     -0.50754835
H       1.64821104      2.40829792     -0.70162952
