19
b3lypvtz=-171818.94176113
C       0.87971759      0.09639242     -0.26149742
H       0.54943797      0.99718343     -0.78482206
H       0.50917770     -0.76671536     -0.82019869
H       0.40327303      0.08757124      0.72029747
C       2.39376312      0.05951007     -0.14797094
C       2.92817406      0.79328835      1.05451298
H       2.29464346      1.46889236      1.61433398
C       2.89273151     -0.74486338      1.02430837
H       2.22793159     -1.41195334      1.55747089
C       4.42073409     -0.79245756      1.11012124
H       4.77027933     -1.22353236      2.04679049
H       4.94164543     -1.28967254      0.28974828
C       4.45669406      0.76712987      1.13993540
H       4.82575273      1.14575484      2.09167980
H       4.99974273      1.27055441      0.33789915
C       3.08498820      0.07055884     -1.49689706
H       2.77546820     -0.79241195     -2.09220826
H       2.81612030      0.97008767     -2.05681764
H       4.17052491      0.04408301     -1.42128599
