16
b3lypvtz=-202040.05350788
C      -0.24141156     -1.69823238      0.74339200
C      -0.48119807     -0.43146788     -0.03384405
C       0.65322487      0.43637846     -0.27735479
N       1.82362394      0.16690835      0.16875547
N       2.82425277      1.08557439     -0.05979293
C      -1.71827110     -0.13720363     -0.48929565
N      -2.11788292      0.94708537     -1.26253594
H      -1.16530123     -2.26521806      0.86000989
H       0.49447911     -2.33452619      0.24661148
H       0.15973009     -1.48202839      1.73569712
H       0.50045714      1.34591995     -0.87139823
H       3.71909134      0.61952926     -0.05934797
H       2.70263598      1.63861075     -0.90609529
H      -2.51982784     -0.83996000     -0.29661022
H      -1.53860808      1.77014506     -1.22382360
H      -3.09499444      1.17848495     -1.18996730
