16
b3lypvtz=-181114.40385474
C      -2.26821719     -0.24643376      0.82654248
C      -0.98554113     -0.27413292      0.04182754
C       0.22096983     -0.89241382      0.60787000
C       1.39530131     -0.85013211     -0.36814692
C       1.13263882      0.64369075     -0.43366855
C       1.66888273      1.68372599     -1.04752395
N       0.07674061      0.63503570      0.56482041
H      -2.86850005      0.62188889      0.55087709
H      -2.06494952     -0.18898919      1.89580686
H      -2.85737979     -1.14501484      0.63166083
H      -1.10413098     -0.29608758     -1.03803565
H       0.21137851     -1.41941652      1.55276141
H       2.35213259     -1.08069020      0.09988819
H       1.29789982     -1.43461457     -1.28468032
H       2.48086399      1.55811302     -1.75016883
H       1.31201045      2.68547114     -0.84973057
