15
b3lypvtz=-193609.87200893
C      -1.75580184      1.39436103      0.77463595
C      -0.65027874      0.65695979      0.84066348
C      -0.40912933     -0.57645466      0.06101293
C      -1.39590366     -1.46937441     -0.13237536
C       0.92186842     -0.85603271     -0.47961065
C       2.03682386     -0.11756891     -0.45956949
O       2.14641043      1.11672255      0.11508175
H      -1.87982774      2.27248864      1.39441931
H      -2.56289870      1.15540326      0.09346625
H       0.15334240      0.97446890      1.49279778
H      -2.37696763     -1.32747713      0.29723316
H      -1.23361804     -2.36879293     -0.71210943
H       1.02668525     -1.80829204     -0.98462175
H       2.94115957     -0.49641279     -0.92215369
H       3.03813575      1.45010141     -0.01097026
