15
b3lypvtz=-214492.35790207
C      -0.91011469      2.03827193      0.02040043
C       0.19668186      1.29541896      0.05261689
C       0.21959451     -0.16164253      0.19093953
C      -1.01911533     -0.95442458      0.54218158
N      -2.01326007     -0.91590671     -0.54055652
N       1.27680907     -0.88287331      0.07419059
O       2.42472831     -0.14138153     -0.24511353
H      -0.84674463      3.11551163     -0.06075630
H      -1.89619984      1.59622295      0.03688981
H       1.16547608      1.76953411     -0.02030776
H      -0.68933364     -1.96296425      0.81009906
H      -1.47893859     -0.50965567      1.42827189
H      -2.84417848     -1.42503324     -0.26288506
H      -1.64525908     -1.38088869     -1.36278251
H       3.10604550     -0.82012307     -0.26109410
