13
b3lypvtz=-237085.13227442
C       2.12336202     -1.08347270     -0.01059846
N       0.74914639     -0.66444542     -0.20200113
C       0.40236793      0.64056828     -0.03505024
N       1.10624706      1.66944230      0.16421648
O      -0.97348819      0.91903446     -0.19859342
C      -1.97304314      0.04254211     -0.02097786
O      -1.89738107     -1.11917647      0.28067457
H       2.77931554     -0.59027714     -0.72992774
H       2.49305940     -0.87074915      0.99810532
H       2.18289995     -2.15570946     -0.18159838
H       0.01556527     -1.33778484     -0.03630681
H       2.08791808      1.44047936      0.27383644
H      -2.91772525      0.56948867     -0.19519379
