14
b3lypvtz=-226959.96590946
C      -0.13781856     -0.30500048      1.32267226
C      -0.15759794     -0.05534875      0.00922716
C       1.00608743      0.05066029     -0.87539095
N       2.26657371     -0.06237312     -0.68608293
O       2.62284419     -0.33830115      0.63510277
C      -1.46967261      0.14455804     -0.73552077
O      -2.62159837      0.19008991      0.08070169
H       0.77902548     -0.44474733      1.86682022
H      -1.07275145     -0.38606696      1.86078768
H       0.79011466      0.26670278     -1.91879268
H       3.58261352     -0.39055912      0.58205836
H      -1.62613629     -0.69088130     -1.42343176
H      -1.39150144      1.04755987     -1.35613153
H      -2.57028234      0.97370732      0.63788049
