16
b3lypvtz=-181163.6223658
C       2.32058557     -0.20223771      0.39564016
C       1.27690209     -0.05958411     -0.71843004
C      -0.10985442      0.26813800     -0.20841634
C      -1.16151708     -0.55325228     -0.32785572
C      -2.55181787     -0.30731390      0.15391627
C      -0.25601828      1.53865849      0.43877478
N      -0.33562462      2.56970922      0.95051842
H       3.30313202     -0.41404323     -0.02762856
H       2.39950081      0.71297866      0.98323818
H       2.05969566     -1.01602963      1.07374431
H       1.59503155      0.72554844     -1.40997939
H       1.21660122     -0.98383976     -1.29524416
H      -0.98794647     -1.49975762     -0.83066131
H      -2.65449407      0.65732102      0.64771429
H      -3.25780947     -0.34686456     -0.68014386
H      -2.85636665     -1.08943106      0.85481297
