16
b3lypvtz=-209431.52777398
F       2.41678515      1.23400130      0.68849547
C       1.68984987      0.03485258      0.70651415
C       0.95415565     -0.13998818     -0.58600641
C      -0.28663002      0.61196296     -0.97390368
C      -1.21761297      0.84553793      0.21913804
C      -1.28481278     -0.69692879      0.44761176
C      -0.33628966     -0.90109097     -0.73942166
H       2.40948098     -0.77249496      0.86024350
H       1.02415299      0.07736395      1.56809676
H       1.61990890     -0.28963538     -1.42941196
H      -0.32909833      1.15110428     -1.90962765
H      -0.81813622      1.45634479      1.03015080
H      -2.18137172      1.25560057     -0.07615770
H      -0.95900328     -1.07987514      1.41623784
H      -2.27925170     -1.09032233      0.24463807
H      -0.42222686     -1.69653261     -1.46659733
