16
b3lypvtz=-204421.8414878
C      -1.65101998     -0.97753690      0.57731484
C      -0.49258334     -0.50674627     -0.28583641
C       0.90555920     -0.46983666      0.45463434
O       1.97967519     -1.19037140     -0.08954706
C       0.92621725      1.04938619      0.26473463
N       0.88945829      1.23737166     -1.20700497
C      -0.36980483      1.00904985     -0.45989341
H      -1.54621765     -2.03699762      0.81825909
H      -1.69797262     -0.42451231      1.51867057
H      -2.60763328     -0.84391038      0.06756359
H      -0.45802403     -1.05257466     -1.23024959
H       0.80913303     -0.77051459      1.49733027
H       2.14629408     -0.80313543     -0.95930163
H       1.35403554      1.80644294      0.90677363
H       0.97712975      2.23224198     -1.39572428
H      -1.16434661      1.74184358     -0.47752361
