18
b3lypvtz=-181898.49707287
N      -2.20629955     -0.15016007      0.10666005
C      -0.91561519      0.09456655     -0.52936653
C      -0.16341096      1.31820784      0.08574746
C       1.18142089      0.65189247      0.41989543
C       0.72940331     -0.68358758      1.07113367
C       0.19942175     -0.96836324     -0.36058086
C       1.44684141     -0.18921587     -0.86121075
H      -2.65160602     -0.96840080     -0.29336228
H      -2.09454482     -0.32989295      1.09812107
H      -1.11409177      0.25337852     -1.59124570
H      -0.06150967      2.14635377     -0.61592724
H      -0.68140466      1.69110770      0.97067513
H       1.95222891      1.27488951      0.86852449
H       1.56666199     -1.32553682      1.34102782
H       0.01702042     -0.64138915      1.89784571
H      -0.03011765     -1.97611609     -0.70428372
H       1.38116187      0.31518982     -1.82746216
H       2.36447775     -0.77321361     -0.80331658
