12
b3lypvtz=-249572.13015512
O       2.42318027      1.11995392      0.51731300
C       1.36277994      0.59587021      0.33321795
N       0.97224398     -0.19769073     -0.72092095
C      -0.27384514     -0.87786196     -0.43211927
C      -0.86082470      0.05741252      0.64617902
O      -1.79864753      0.96932864      0.17030603
O       0.29003208      0.72453997      1.18403814
H       1.69410592     -0.60025532     -1.29356566
H      -0.93695215     -0.93092388     -1.29432928
H      -0.12231379     -1.88713090     -0.03756537
H      -1.34839488     -0.47379126      1.45842548
H      -1.40146400      1.50044880     -0.53087909
