16
b3lypvtz=-204458.46447182
C      -2.47522145     -0.43106849      0.16029495
C      -1.02914939     -0.13036068     -0.04691731
C      -0.05905295     -0.93497753     -0.51205928
C       1.26350862     -0.22224903     -0.44678625
O       2.10658349     -0.70608943      0.61243602
C       0.81495648      1.24452595     -0.23978035
N      -0.53914343      1.12684627      0.32370225
H      -2.75136508     -0.29185660      1.20818207
H      -3.10515972      0.23983716     -0.43116107
H      -2.70538813     -1.45442632     -0.12838119
H      -0.17382768     -1.97646259     -0.76571036
H       1.87844758     -0.32294110     -1.34060003
H       1.53615686     -0.90846889      1.36230105
H       1.49356627      1.77030241      0.43091044
H       0.79152899      1.76457936     -1.20325552
H      -1.15646246      1.91015150      0.17001558
