16
b3lypvtz=-204442.34935709
C       3.24004278      0.61952008     -0.00548745
N       2.02151011      0.43936897     -0.31112938
C       1.25008561     -0.39963907      0.49646307
C      -0.03393456     -0.66456266      0.23598915
C      -0.82539057     -0.12015124     -0.91043358
C      -2.15965632      0.49429014     -0.47641556
O      -3.02538600     -0.43794363      0.16777497
H       3.85419432      1.27134841     -0.61995955
H       3.71760512      0.14531528      0.86028280
H       1.73260762     -0.84639729      1.36777801
H      -0.56209358     -1.32195441      0.91636418
H      -0.23694507      0.62180864     -1.45078951
H      -1.04074709     -0.93086167     -1.61949592
H      -1.98851669      1.28514732      0.25454367
H      -2.65270507      0.94640852     -1.34449969
H      -3.29067061     -1.10139739     -0.47678522
