15
b3lypvtz=-191229.42811038
N      -2.37461708     -0.67904156      0.08195973
C      -1.20146150     -0.22473818     -0.04219764
C      -0.74602580      1.21379699     -0.25624209
C       0.70149848      1.24898837      0.25712009
C       1.21854091     -0.16379374      0.05034683
N       2.44749366     -0.42239693     -0.09770759
C       0.02900115     -1.11166129      0.03049873
H      -3.06733275      0.06882941      0.01797823
H      -0.77044314      1.42487583     -1.33029459
H      -1.41179392      1.92586902      0.23054769
H       0.71582682      1.46514303      1.33012701
H       1.34282280      1.97924881     -0.23109175
H       2.60279452     -1.42383864     -0.22464137
H       0.07212256     -1.79398583     -0.82127868
H      -0.00236070     -1.73225629      0.92899139
