14
b3lypvtz=-203685.8556999
N      -2.36621106      1.76321330     -1.33299403
C      -1.86638842      0.97777455     -0.65396946
C      -1.24959602      0.00169887      0.19823883
C      -0.63745893     -1.25164832     -0.40194562
C       0.25915146     -0.20863629      0.17672688
C       1.14677175      0.61992874     -0.72086110
O       2.30512715     -0.09211012     -1.14363304
H      -1.73835098     -0.10047567      1.15775110
H      -0.79291348     -2.17488846      0.13728321
H      -0.66430294     -1.34239396     -1.47854195
H       0.67893366     -0.42366082      1.15322800
H       0.61379145      0.88761253     -1.63301035
H       1.42026908      1.55403748     -0.21830136
H       2.89107729     -0.21055183     -0.39007111
