14
b3lypvtz=-203667.45483171
C       1.68366878      0.37650836     -0.15832007
C       0.58308262     -0.54087149     -0.52880544
N       0.57531231      0.85719873     -1.02102109
C      -0.45091908      1.47764333     -0.24425533
C      -1.12670719      0.65187314      0.55190037
C      -0.59713046     -0.75144775      0.42042027
O      -1.60175025     -1.59379576     -0.15494705
H       2.64263683      0.28261807     -0.65265245
H       1.71561386      0.76264336      0.85376262
H       0.75383413     -1.30334854     -1.27862392
H      -0.59236063      2.54265018     -0.36033630
H      -1.94810929      0.91687389      1.19958617
H      -0.28872701     -1.16701643      1.38699701
H      -1.34844460     -2.51152908     -0.01370478
