12
b3lypvtz=-254553.80182678
C       1.18494318     -0.82904657      0.34494414
C       0.12381993      0.19624153      0.06336712
C      -1.18153874     -0.10976210      0.08282393
O      -1.69452821     -1.31309913      0.34196240
F      -2.14129953      0.79626102     -0.16550361
C       0.53439797      1.56596619     -0.23918251
O       1.69700057      1.91571585     -0.27471122
H       1.79249100     -0.51819564      1.19600386
H       1.86106285     -0.91622917     -0.50665829
H       0.75786356     -1.80632491      0.55587132
H      -2.65795552     -1.26987878      0.29383968
H      -0.27625707      2.28835172     -0.43927308
