20
b3lypvtz=-182664.45958447
C       2.39407337     -0.22150317      0.31971889
C       1.10791945      0.11768444     -0.42031614
N       0.21963555     -1.03276922     -0.73228224
C      -0.68746461     -0.69039852      0.39216143
C      -2.16752430     -0.85036648      0.10091605
C      -0.02872918      0.72429986      0.44965485
C      -0.78711873      1.87372466     -0.19596063
H       2.93663677      0.68687280      0.59353931
H       2.19160287     -0.78224834      1.23539572
H       3.05600068     -0.82438636     -0.30705182
H       1.34899729      0.70340133     -1.31344856
H       0.65947069     -1.94452100     -0.67985622
H      -0.44902095     -1.24314283      1.30938614
H      -2.77429961     -0.47760478      0.92998644
H      -2.41123672     -1.90601025     -0.03920030
H      -2.45278205     -0.32158758     -0.80798606
H       0.29237994      1.01178774      1.45195080
H      -1.68886990      2.12775819      0.36514037
H      -1.08256512      1.63441318     -1.21831993
H      -0.16049645      2.76778233     -0.23336311
