18
b3lypvtz=-181914.09044485
C      -2.36532600     -0.01606847      0.29378744
C      -1.00141777     -0.05666936     -0.39425767
C      -0.25687690      1.25074776     -0.23932426
C       1.03037672      1.31988633      0.08765554
C       1.88383948      0.09654899      0.28522722
C       1.17565246     -1.15279205     -0.25624714
N      -0.24377705     -1.21709912      0.09015787
H      -2.88344951     -0.96586143      0.15902223
H      -2.25316191      0.16880261      1.36527397
H      -2.98637146      0.78024223     -0.11780949
H      -1.18155171     -0.21664093     -1.46660454
H      -0.82213846      2.16132964     -0.41248680
H       1.50428956      2.28797398      0.20949694
H       2.11718481     -0.02930196      1.34969370
H       2.84896249      0.23094647     -0.21400562
H       1.66335716     -2.06111958      0.10168040
H       1.24888610     -1.16334081     -1.34753293
H      -0.33959702     -1.26948628      1.09944014
