15
b3lypvtz=-193589.59281664
C       1.97030671      1.77205444      0.10197164
C       1.45817002      0.71550665     -0.14356475
C       0.85756733     -0.59420701     -0.42047926
O       1.44118801     -1.62118658      0.39514660
C      -0.64828706     -0.62081901     -0.31048940
C      -1.43602775      0.39198749      0.03117533
C      -2.92625304      0.31673849      0.14463815
H       2.43122387      2.70469635      0.31303783
H       1.13747937     -0.88452739     -1.43771468
H       1.21591309     -1.42525214      1.31190180
H      -1.07257540     -1.59664576     -0.52680283
H      -0.98302110      1.35625360      0.24043336
H      -3.40564358      1.01828288     -0.54373795
H      -3.25574709      0.59438216      1.14967018
H      -3.29998638     -0.68388615     -0.07335502
