18
b3lypvtz=-181898.9391031
C      -2.62682496      0.00847326     -0.08725185
C      -1.15732552      0.00590170     -0.43026599
C      -0.18310088      0.75067808      0.45809962
C       1.15645525      1.20064438     -0.12537514
C       2.03113284     -0.06469834     -0.05912165
N       1.06349098     -1.16361956     -0.23130289
C      -0.17565470     -0.75644438      0.41708275
H      -3.11809549      0.91796746     -0.44125990
H      -2.77951218     -0.04658276      0.99301574
H      -3.13954414     -0.84494982     -0.53695637
H      -0.92138699      0.00711419     -1.48894562
H      -0.58362990      1.28104363      1.31172231
H       1.04740601      1.54188126     -1.15706250
H       1.59178082      2.01837852      0.44852834
H       2.54494552     -0.10605439      0.91253066
H       2.79083739     -0.09472588     -0.84200069
H       1.40576089     -2.04184376      0.13118565
H      -0.53793294     -1.35284959      1.24704654
