18
b3lypvtz=-181906.8577079
C       3.08601233     -0.00003019     -0.44692569
N       1.81701219     -0.00001316     -0.44728831
C       1.15075333      0.00003316      0.78068333
C      -0.18279035      0.00003897      0.87371203
C      -1.16045328     -0.00000587     -0.26428071
C      -2.03244422      1.26516125     -0.22407646
C      -2.03241057     -1.26519423     -0.22400172
H       3.68588554      0.00008858      0.47122810
H       3.62031181      0.00001546     -1.39256886
H       1.76104896      0.00006088      1.68604829
H      -0.61000152      0.00007770      1.87293099
H      -0.59106659     -0.00002657     -1.19386882
H      -2.60831045      1.31705706      0.70372774
H      -1.42311927      2.16704008     -0.29214784
H      -2.74026668      1.26957846     -1.05545252
H      -1.42306102     -2.16706030     -0.29202021
H      -2.60827551     -1.31705139      0.70380539
H      -2.74023268     -1.26967890     -1.05537771
