14
b3lypvtz=-203679.64348161
C       1.34485030     -0.46039435     -0.14398509
C       1.15917185      1.02687598      0.03041540
N       0.08987850      1.66457360      0.24620476
C      -1.18433458      0.96484684      0.34623842
C      -1.20579359     -0.50427803      0.01027487
C       0.05009429     -1.21854813     -0.23029462
O      -0.80579260     -0.85898335     -1.32148427
H       1.95383124     -0.64478368     -1.03516145
H       1.93441181     -0.83617919      0.70061954
H       2.07518756      1.61794227     -0.02174432
H      -1.54705083      1.09759299      1.37118485
H      -1.89812352      1.49629122     -0.29023927
H      -2.06644306     -1.05871429      0.37567243
H       0.10011264     -2.28624188     -0.03770126
