13
b3lypvtz=-190472.43327392
C      -0.11319289     -1.06795586     -0.16778034
C      -1.38737518     -0.26561068      0.18155501
N      -0.85469952      0.98101172      0.76771406
C       0.43200389      1.14869272      0.31573659
C       0.93945124      0.03087759     -0.24354270
C       2.25607061     -0.14574398     -0.70635260
N       3.32691008     -0.32146381     -1.10655381
H       0.13632779     -1.78178042      0.62253527
H      -0.21976432     -1.62841547     -1.09517794
H      -1.96293216     -0.04355866     -0.72313716
H      -2.03597460     -0.78203757      0.88658839
H      -1.45807758      1.78711553      0.80266766
H       0.94125264      2.08886889      0.46574757
