17
b3lypvtz=-194368.90163899
C      -2.04502241     -0.05909198      0.41110944
C      -1.16421889      0.77862948     -0.54932581
C       0.01092944     -0.23390251     -0.34039337
C      -1.02813805     -1.22143452      0.28829458
C       1.08491813      0.22797742      0.58814695
C       2.38230929      0.18765022      0.29702277
O       3.41717395      0.58934336      1.09150181
H      -2.07728519      0.35986002      1.41712576
H      -3.06819244     -0.26052245      0.09611611
H      -1.53438626      0.76066104     -1.57460635
H      -0.96571156      1.81378420     -0.27269542
H       0.46663255     -0.59020997     -1.26518895
H      -0.72498568     -1.72090988      1.20814114
H      -1.34778147     -1.97987820     -0.42668348
H       0.77401098      0.61718339      1.55666410
H       2.75198011     -0.18798619     -0.64904203
H       3.06776747      0.91884658      1.92738712
