16
b3lypvtz=-204439.26323412
C      -3.53774941      0.18209149     -0.08406798
C      -2.33689690     -0.38075731     -0.11332860
O      -1.18900456      0.33360424      0.04228745
C       0.01749870     -0.42432534      0.06881215
C       1.18021146      0.55345761      0.18050319
C       2.49772727     -0.15487195      0.34774331
N       3.51305301     -0.09794784     -0.40527086
H      -4.41714710     -0.42701610     -0.22397656
H      -3.66110591      1.24424722      0.07351738
H      -2.20386222     -1.44732826     -0.27081495
H       0.10443669     -1.02208283     -0.84478421
H       0.00830667     -1.10953863      0.92398184
H       1.20477422      1.20085277     -0.69813099
H       1.00224037      1.18750025      1.05487079
H       2.57704309     -0.79392393      1.23227064
H       3.34215262      0.52260961     -1.20073260
