14
b3lypvtz=-203680.63374176
C       2.55974936      0.14657711      0.10939636
N       1.42579998      0.66702317     -0.08510294
C       0.25727651     -0.08072203      0.27838153
C      -1.04256178      0.71234579      0.59432369
C      -1.85802421     -0.17967282     -0.38616476
C      -0.52715865     -0.73036540     -0.90007924
O      -0.18176349     -1.33789569     -1.86655312
H       3.45082625      0.68520624     -0.20333150
H       2.70643203     -0.83083887      0.58370603
H       0.45405824     -0.85986881      1.03000373
H      -0.95346329      1.73884523      0.24634477
H      -1.36017833      0.70599426      1.63386300
H      -2.45628982     -0.95230911      0.10037023
H      -2.47480279      0.31568093     -1.13505779
