18
b3lypvtz=-181831.54308585418
C      -1.36650016      1.44381100     -0.00046716
C      -0.90561223      0.05306812      0.37515152
C      -1.52376661     -1.19913487     -0.25533119
C      -0.11126591     -1.81664914     -0.26383791
N       0.45949533     -0.34313628     -0.19612446
C       1.63815379     -0.14902414      0.60130655
C       2.70148550      0.51788265      0.18220509
H      -0.69724008      2.21233329      0.39306508
H      -1.44109811      1.56540648     -1.08266204
H      -2.35940744      1.61869012      0.41755426
H      -0.81793316     -0.05690026      1.45362494
H      -1.98840280     -0.95329968     -1.22599357
H      -2.27501894     -1.70536932      0.35295766
H       0.21376136     -2.24224641     -1.21649040
H       0.58293746      0.13147387     -1.09651722
H       1.57128682     -0.66453027      1.54812050
H       2.74148774      0.98427745     -0.79442375
H       3.57763742      0.60334739      0.80786209
