13
b3lypvtz=-239475.57925757
C      -1.11440888      1.54430518      0.06429132
C      -0.52613385      0.16162753     -0.02339855
C       0.98017219      0.10803600     -0.03265534
O       1.68072839      1.07436842     -0.19844533
O       1.46973290     -1.13602019      0.14400319
C      -1.26199855     -0.94501410     -0.66732936
O      -1.17147201     -0.85873028      0.74862475
H      -0.79700204      2.03724155      0.98332410
H      -2.20120208      1.48207210      0.05699773
H      -0.78186717      2.15703279     -0.77270417
H       2.43434358     -1.06084339      0.10243856
H      -0.71674686     -1.76701230     -1.11659146
H      -2.23804463     -0.72645531     -1.08917545
