13
b3lypvtz=-190432.47667719817
C      -2.01579545     -0.09351480      0.86847521
C      -1.17386942     -0.61258689     -0.02406406
C       0.21148348     -0.20716263     -0.29856221
C       0.91048690     -0.86618675     -1.24273038
C       0.75323931      0.89931341      0.47913970
N       1.97408720      1.30467256      0.30046356
N       3.04305816      1.62792400      0.11619967
H      -1.75518411      0.72673000      1.52381635
H      -3.01787005     -0.48554660      0.97375510
H      -1.51833272     -1.43619228     -0.63992839
H       0.45826393     -1.68135291     -1.78795386
H       1.93245091     -0.61770007     -1.49318576
H       0.19798187      1.44160295      1.22457508
