13
b3lypvtz=-234704.49746866
N      -1.36276154      1.25071825     -0.01439605
C      -1.20542536     -0.02194887      0.00295439
O      -2.27929419     -0.85817426     -0.00899757
N      -0.02132321     -0.71440448      0.03906900
C       1.12425244     -0.08148530      0.00858654
N       1.28388750      1.25505586      0.05115816
N       2.26314412     -0.84417123     -0.08593880
H      -2.34728037      1.49417354     -0.04915683
H      -1.92076539     -1.75517477      0.00568460
H       2.15211302      1.66252924     -0.24790685
H       0.40331952      1.77765562     -0.00997687
H       3.10302810     -0.47723309      0.33008663
H       2.10520236     -1.82620252      0.06906263
