14
b3lypvtz=-226989.21360521
C      -0.93770454      1.03860480     -0.40505098
C      -0.12032109     -0.01515139      0.32090237
C      -0.51231952     -1.48281146      0.08189996
O       0.72903272     -1.70644344     -0.65973580
C       1.17865769     -0.43672695     -0.39727875
N       2.30197596      0.01000225     -0.72042030
O       0.00726091      0.26076344      1.70208378
H      -1.06516737      0.78546655     -1.45775897
H      -1.92039918      1.13215429      0.05904627
H      -0.43840372      2.00970901     -0.35612763
H      -0.54037244     -2.08167887      0.98970190
H      -1.38281739     -1.66701665     -0.54509508
H       2.41597998      0.97723745     -0.42898325
H       0.28459800      1.17589094      1.81681649
