16
b3lypvtz=-204417.84285938
C      -2.10875073     -0.15257178      0.02777016
C      -1.09072643      0.62530665      0.89203903
C      -0.00588645      0.07366434     -0.05861579
C       1.22876155      0.87009018     -0.50332816
O       2.12415265     -0.08195813      0.12295481
C       1.02666342     -0.95928235      0.45212954
N      -1.06167651     -0.28584985     -1.01426676
H      -3.00016006      0.38359297     -0.30035312
H      -2.41498689     -1.09803565      0.48610464
H      -1.00765460      0.34623672      1.94034748
H      -1.20409799      1.70561341      0.81352931
H       1.35895589      0.90717492     -1.58880352
H       1.34095938      1.87318701     -0.08352600
H       1.00000185     -1.20130496      1.51825180
H       1.05763749     -1.88784774     -0.13011287
H      -0.97296257     -1.19082174     -1.46098256
