17
b3lypvtz=-191981.44022041
C      -1.64465814     -0.60396413      0.45199078
C      -0.47282894     -0.33377819     -0.50544347
C       0.66251531     -1.37765613     -0.38625674
N       1.65207987     -0.76203250      0.52699147
C       1.43590638      0.64157791      0.41144211
C       0.26792785      0.94328277     -0.16292083
N      -0.29566177      2.19848432     -0.44784753
H      -1.29364352     -0.66857620      1.48315814
H      -2.14307704     -1.54233175      0.20019619
H      -2.39726116      0.18626848      0.39963778
H      -0.85962652     -0.30109662     -1.52768962
H       1.10244908     -1.55379031     -1.37449407
H       0.31012327     -2.33291056      0.00549418
H       2.59888348     -1.03516391      0.29775309
H       2.15692704      1.32337516      0.83908502
H      -1.27676257      2.25568728     -0.20565567
H       0.19670740      2.96262436     -0.00544084
