12
b3lypvtz=-202898.66247202
C      -1.14419233      1.15146833     -0.11301749
C       0.14548572      0.57650744      0.44972539
C       0.66796320     -0.47210302     -0.53245728
C      -0.54498963     -0.74634896      0.33604211
O      -1.70564232     -0.19146635     -0.26513522
C       1.89194942     -1.12577401     -0.17670955
N       2.87079387     -1.65687779      0.11879336
H      -1.72061706      1.71588241      0.62008322
H      -1.09601083      1.69220183     -1.05946944
H       0.76753527      0.99026486      1.22693017
H       0.50603661     -0.33310733     -1.59523899
H      -0.63831192     -1.60064741      0.99045372
