14
b3lypvtz=-203665.75736839
C       2.38281723     -0.87550752      0.10520930
C       1.47161414     -0.00790228     -0.36511946
N       1.72154918      0.92440113     -1.37862080
C       0.12313345     -0.01739265      0.11447917
C      -1.01438221      0.01629911      0.50919948
C      -2.40311781      0.00968330      0.96320717
O      -3.34931311      0.12034359     -0.09607716
H       2.10516865     -1.62217752      0.83069878
H       3.40762029     -0.85621936     -0.24071195
H       1.16406518      1.76223946     -1.32602782
H       2.69796211      1.12209741     -1.53510439
H      -2.58041974     -0.89323475      1.56015333
H      -2.58814319      0.86543784      1.61498726
H      -3.13865416     -0.54806777     -0.75617291
