14
b3lypvtz=-226950.02846235354
C       0.73195964     -0.61938769     -0.95146159
C       1.81898969      0.19880689     -0.20146766
N       0.73929823      0.52918346      0.78650582
C      -0.18585075     -0.17255246      0.16013953
C      -1.61905711     -0.31230993      0.51148284
O      -2.48492583      0.36317527     -0.40932462
O       0.78552642      1.23280766      1.81272343
H       0.92420711     -1.69166181     -1.00831857
H       0.48403466     -0.24782149     -1.94590774
H       2.19566855      1.09048378     -0.69786263
H       2.62939477     -0.36344970      0.25700503
H      -1.92045621     -1.35989431      0.46871473
H      -1.76348769      0.04284718      1.53559422
H      -2.33530147      1.30977313     -0.31782280
