13
b3lypvtz=-237060.74051054
N      -2.13203567      1.14556174      0.40478018
C      -2.21392696     -0.01899516     -0.05391021
O      -1.24165041     -0.97038478     -0.25036824
C       0.03925648     -0.72617399      0.24451741
O       0.68530646      0.21432905     -0.60685180
C       2.00478362      0.46547553     -0.39006807
N       2.79142469      0.01435177      0.48420580
H      -1.18432436      1.44086921      0.62733436
H      -3.16360606     -0.43560428     -0.37370290
H       0.56325868     -1.68141190      0.21844499
H       0.00018433     -0.33548922      1.26695555
H       2.35044620      1.17739975     -1.13353259
H       2.36859000     -0.64194473      1.13580952
