15
b3lypvtz=-191193.6671173
C      -1.78599590      1.41199089     -0.10331898
C      -1.51477948      0.10391873     -0.04421034
C      -2.59488341     -0.92619813      0.16776568
C      -0.15971479     -0.42621954     -0.21534523
C       0.98549658      0.18989848      0.10749543
N       2.19776838     -0.46742984     -0.14283596
N       3.20074263      0.20803525      0.17393872
H      -2.79434665      1.78126140      0.02900857
H      -1.01802008      2.14631483     -0.30413054
H      -2.63132645     -1.62559254     -0.67185075
H      -3.57456907     -0.46204304      0.26850662
H      -2.40089685     -1.51950503      1.06477766
H      -0.06878754     -1.43066771     -0.61714402
H       1.03845182      1.17223978      0.56832132
H       4.02310980     -0.36819955     -0.04838618
