19
b3lypvtz=-171851.82945736
C       2.73131409      0.43612573     -0.05106151
C       1.68122743     -0.67089214      0.00714120
C       0.25334340     -0.21603472      0.02201781
C      -0.22186900      1.02928978      0.01046864
C      -1.72676725      1.08142275      0.08573282
C      -2.14165871     -0.38581633     -0.18081984
C      -0.87568580     -1.22319322      0.10785296
H       2.66070350      1.09654421      0.81465359
H       3.73704479      0.01412122     -0.06676132
H       2.61239487      1.04746865     -0.94714350
H       1.85494242     -1.29420915      0.89308065
H       1.81917584     -1.35098250     -0.84212510
H       0.38661183      1.92348963     -0.00959417
H      -2.05348774      1.42241593      1.07526425
H      -2.16609560      1.77489922     -0.63539379
H      -2.41876521     -0.49788082     -1.23022949
H      -3.00002303     -0.69730614      0.41382618
H      -0.90189892     -1.67386964      1.10739466
H      -0.75101193     -2.05077046     -0.59575504
