17
b3lypvtz=-241000.46477281
C       0.33079340      1.71126914      0.11439561
C       0.29938246      0.24279831     -0.29018746
C       1.31312833     -0.57979555      0.51421206
O       0.63171369      0.20492078     -1.68126384
C      -1.13201628     -0.31729767     -0.13990988
O      -1.61483482     -0.33316218      1.18085201
O      -1.11815782     -1.62080214     -0.70096455
H      -0.35821079      2.28820687     -0.50312611
H       1.33403084      2.11030467     -0.03454204
H       0.05108946      1.83485835      1.15943293
H       1.14100793     -0.50213011      1.59036919
H       1.27640750     -1.63145152      0.22994635
H       2.31471945     -0.20224041      0.31197507
H       0.42777982     -0.68384390     -1.99580102
H      -1.82160060      0.32825237     -0.68908831
H      -1.04875134     -0.91732884      1.69916606
H      -2.02638123     -1.93265816     -0.76556607
