17
b3lypvtz=-191983.3622129
C       2.64009799     -0.39666591     -0.57931275
C       1.37174935      0.12594366      0.05103592
N       1.17794281      1.32634242      0.41564188
C       0.28227819     -0.90602176      0.25602167
C      -1.05296551     -0.37187566      0.79431886
C      -1.84683005      0.39258525     -0.23172727
N      -2.99745484      0.10920596     -0.68225301
H       3.39596645      0.38382212     -0.65803759
H       3.05025050     -1.22399962      0.00495260
H       2.43699026     -0.78764252     -1.57922886
H       1.99798781      1.90474314      0.23251992
H       0.12482675     -1.44042141     -0.68677175
H       0.67455312     -1.65951884      0.94778983
H      -1.65487913     -1.20775135      1.15923500
H      -0.84370581      0.29082164      1.63734629
H      -1.36249489      1.28847510     -0.62149943
H      -3.35644900     -0.74362224     -0.24349631
