12
b3lypvtz=-257141.96153939
C      -3.33492410      0.00000763     -0.26885576
C      -2.17889432     -0.00001044      0.38954491
N      -0.96164745      0.00000429     -0.29832465
C       0.11428409     -0.00001739      0.37192949
C       1.43309205      0.00000450     -0.33849696
F       2.15623220      1.09876100      0.04001342
F       2.15624324     -1.09876315      0.03995923
H      -3.34975497      0.00003214     -1.35000251
H      -4.27754322     -0.00000408      0.25898829
H      -2.14925782     -0.00003976      1.47970998
H       0.16045299     -0.00004166      1.46666306
H       1.32408731      0.00003093     -1.42223351
