16
b3lypvtz=-204427.96222148
C       1.43222538      0.21578889     -0.17485250
C       0.99758175     -1.24343956     -0.12778784
O      -0.33774304     -1.39066269     -0.59534560
C      -1.24333579     -0.81280272      0.33018050
C      -0.92803515      0.64183539      0.60944678
N       0.43802813      1.14596172      0.39496496
C      -0.63929093      1.57740054     -0.49918098
H       1.63751376      0.50430140     -1.20820449
H       2.36410653      0.33264529      0.38487996
H       1.63108605     -1.85607812     -0.76913842
H       1.06947269     -1.63433998      0.89652189
H      -2.24289020     -0.91994178     -0.09401711
H      -1.21294730     -1.37800974      1.27280038
H      -1.39952248      1.02804159      1.50837250
H      -0.64868399      1.16709515     -1.50383541
H      -0.91756542      2.62220459     -0.42480461
