13
b3lypvtz=-237047.18830765
N      -1.65696862      1.29924957      0.94770834
N      -1.57352403      0.72456853     -0.29565433
C      -0.66473599     -0.13119588     -0.54250933
C       0.37992105     -0.68563632      0.40934920
O       0.80130768     -1.95674905     -0.00197397
C       1.55300173      0.28109023      0.46091150
O       2.66789363     -0.07248798      0.16723067
H      -2.58851011      1.65910787      1.08923482
H      -1.36149319      0.71993925      1.72956490
H      -0.61152711     -0.51743593     -1.55406536
H      -0.03215675     -0.74128572      1.43125671
H       1.76217833     -1.89644333     -0.12749739
H       1.32461338      1.31737875      0.76014424
