11
b3lypvtz=-233887.40456896
N      -3.06392676     -0.17892400      0.00002667
N      -1.83912801     -0.35020284      0.00004410
N      -1.16163939      0.88141760     -0.00013870
C       0.11300173      0.71069402     -0.00012630
N       0.78200201     -0.48931748      0.00005491
C       2.16200689     -0.59511253      0.00006236
O       2.92145220      0.33884544     -0.00007177
H      -3.47263746     -1.12162036      0.00018254
H       0.75358084      1.58290433     -0.00027278
H       0.21443682     -1.32459530      0.00018836
H       2.49097913     -1.64660487      0.00025361
