17
b3lypvtz=-191975.13948564
C      -2.52650065     -1.09416954     -0.24177092
C      -1.47916849     -0.67157962      0.45997172
C      -0.71630708      0.57447466      0.18149400
N      -1.21241256      1.64278721     -0.30572212
C       0.75595988      0.53768070      0.51297242
C       1.55847123     -0.36848549     -0.42742759
N       2.96101657     -0.41129595     -0.00583868
H      -3.04423521     -2.00928512      0.01151189
H      -2.89476250     -0.54749738     -1.10185412
H      -1.11272090     -1.27846759      1.28216549
H      -2.21759308      1.54058000     -0.45654954
H       1.13801078      1.55744572      0.45804394
H       0.89726639      0.17726501      1.53608606
H       1.16602115     -1.38704382     -0.38174882
H       1.41314030     -0.01824545     -1.45863333
H       3.48718775     -1.04783337     -0.59273362
H       3.38776042      0.50188002     -0.11780678
