16
b3lypvtz=-204456.68515615
C      -2.27765236      0.08064636      0.15238027
C      -0.97164542      0.83074946      0.41914511
C       0.20343822      0.20500584     -0.29651131
C       0.83040921     -1.07815534      0.28565836
C       2.05427903     -0.21532913      0.48039936
N       3.20646059     -0.40495423      0.92748003
O       1.46532298      0.92509136     -0.03154078
H      -2.51972124      0.07079712     -0.91233655
H      -3.10955576      0.55147201      0.67617711
H      -2.22016883     -0.95627658      0.48952424
H      -1.06130012      1.86921154      0.09056769
H      -0.75959438      0.85763448      1.49129033
H       0.03789674      0.16934454     -1.37474713
H       0.96730330     -1.90939619     -0.40223924
H       0.38389539     -1.43875435      1.21095642
H       3.77073264      0.44311311      0.89039611
