13
b3lypvtz=-239483.18684985
C      -2.08121363     -0.02310355     -0.11900487
C      -0.98762112      0.60774697      0.28045427
C       0.23262335     -0.08768265      0.85008260
O       0.14259883     -1.49245667      0.87351557
C       1.46379260      0.43860137      0.10947814
O       1.93115676      1.53439286      0.26362993
O       1.94323889     -0.45676262     -0.78356006
H      -2.92751768      0.52299876     -0.51263518
H      -2.16896755     -1.09880602     -0.04700756
H      -0.91059716      1.68780115      0.22343938
H       0.36025519      0.23093212      1.88788964
H       0.31222553     -1.82588207     -0.01460795
H       2.69012600     -0.03777964     -1.23667391
