10
b3lypvtz=-223043.68784842
N      -2.24946326     -0.15420989      0.00092804
C      -0.99243731     -0.02959155      0.00009660
C      -0.21000995      1.20905331     -0.00067032
N       1.06740856      1.24529192     -0.00005154
C       1.69360216      0.00067582      0.00110648
N       1.14467515     -1.15460810      0.00071183
O      -0.24908386     -1.19198695     -0.00043090
H      -2.70382788      0.75554965      0.00080490
H      -0.76335997      2.14538207     -0.00174863
H       2.77491737     -0.00436229      0.00206055
