17
b3lypvtz=-191992.146649
C      -0.83920766      0.09379780     -1.33007335
C      -0.47318870      0.12202372      0.16668275
C      -0.61125335     -1.28340732      0.78146900
C       0.97299347      0.66825601      0.36503306
N       1.95699577     -0.15811662     -0.33014851
C      -1.38296024      1.04358987      0.86144313
N      -2.08395399      1.77355390      1.41024739
H      -0.74939949      1.08432692     -1.77815066
H      -0.17153750     -0.59259302     -1.85014887
H      -1.86312061     -0.25036870     -1.47179514
H       0.12286029     -1.94196264      0.32073134
H      -0.43276893     -1.25967583      1.85682210
H      -1.60983316     -1.68489536      0.61094541
H       1.19501996      0.65371208      1.43257308
H       0.98929225      1.71773645      0.05129714
H       2.83697046     -0.17122902      0.16557909
H       2.14309146      0.18525174     -1.26250695
