17
b3lypvtz=-217672.50559076
C      -0.32335216      1.42694943      0.64982419
C      -0.44842593      1.47495076     -0.84868819
C      -0.12210332      0.17368967     -0.15869048
C       1.28087148     -0.34968060     -0.32323916
O       1.59667815     -1.19418987      0.79740592
C      -1.19841932     -0.89247370     -0.09098035
O      -1.20632142     -1.61316536      1.13286119
H      -1.22345302      1.49421014      1.24446915
H       0.54575190      1.88362944      1.10339046
H       0.33376794      1.96684025     -1.41203797
H      -1.43495279      1.58089708     -1.27899703
H       1.35376745     -0.92531770     -1.25384929
H       1.99133554      0.48201582     -0.38069512
H       2.40537492     -1.67819943      0.60796532
H      -2.18328140     -0.43070667     -0.18120403
H      -1.08130758     -1.57668919     -0.94457685
H      -0.28593045     -1.82276007      1.33704225
