11
b3lypvtz=-215385.73579819
C      -3.10538939     -0.23881407     -0.00120999
C      -1.69035765      0.07503451      0.01674591
C      -0.51568502      0.34142600      0.03553048
C       0.89028282      0.61887685      0.05279793
O       1.37867972      1.72670602      0.14400824
C       1.84373549     -0.58342672     -0.05303023
O       1.48785574     -1.72403640     -0.14830761
H      -3.28213233     -1.22631734     -0.42972503
H      -3.50483896     -0.23330020      1.01517582
H      -3.66071361      0.49933353     -0.58217093
H       2.90513418     -0.27084418     -0.03095058
