16
b3lypvtz=-202063.44658416
C      -1.95445791      0.79613093      1.32276992
C      -1.16594739      0.43906427      0.10206916
C       0.05951179     -0.09833419      0.08506846
C       0.72743396     -0.41555338     -1.21656203
N       0.02797912     -0.61388246     -2.26708662
N       2.10803387     -0.51550366     -1.12294208
N       0.86795599     -0.29882671      1.22532006
H      -1.65510704      0.22362791      2.20441295
H      -3.01734413      0.60759179      1.16109013
H      -1.86019768      1.85726816      1.57784609
H      -1.61166149      0.63221680     -0.86326052
H       0.61683099     -0.77035915     -3.08409562
H       2.61672246     -0.52562810     -1.99154178
H       2.54417174      0.00045633     -0.37469044
H       1.30271584     -1.21160615      1.25578606
H       0.39335988     -0.10666238      2.09419032
