15
b3lypvtz=-193640.11603284
C       2.03947355      0.56131697      0.19226855
C       0.58912385      0.23357537      0.05689263
C      -0.42612823      1.09779079     -0.01264013
C      -1.76556095      0.43249983     -0.14547263
C      -1.41620269     -1.05966108     -0.14806615
O      -2.19909855     -1.96871148     -0.23581835
C       0.10379520     -1.19189819     -0.01856975
H       2.20475197      1.63801388      0.23096900
H       2.61415551      0.15706709     -0.64630332
H       2.45980950      0.11784560      1.09981759
H      -0.30741450      2.17313099      0.02234351
H      -2.30096369      0.68824845     -1.06536674
H      -2.45441641      0.64906815      0.67723134
H       0.50536268     -1.74376692     -0.87499980
H       0.35321276     -1.78451945      0.86781426
