10
b3lypvtz=-223081.83699823
C       0.22360485      1.20663417     -0.27119378
C       0.77748597     -0.06004498     -0.01162785
N       0.00422187     -1.09313009      0.23902526
C      -1.30910871     -0.82924792      0.22312759
N      -1.88233511      0.33917221     -0.01415101
N      -1.08100480      1.38141739     -0.26783269
O       2.10588197     -0.21297675     -0.02034960
H       0.84603319      2.06678758     -0.47934489
H      -1.97915810     -1.65585893      0.42523871
H       2.29437887     -1.14275269      0.17710826
