18
b3lypvtz=-205194.65392419
N       3.11802932     -0.02592828     -0.36883074
C       1.87554050      0.35131731      0.30971143
C       0.72882314     -0.56110116     -0.11855737
C      -0.60459307     -0.18204619      0.50439496
C      -1.33398972      1.06660970     -0.03784716
O      -2.51685386      0.29654662     -0.35184627
C      -1.86254274     -0.93619076      0.02759649
H       3.42214645     -0.94328275     -0.06179359
H       3.86342928      0.61824765     -0.13322007
H       1.94995309      0.34057934      1.40784400
H       1.64354838      1.38105949      0.02411713
H       0.97274633     -1.59395127      0.15646977
H       0.65276901     -0.54107568     -1.20909617
H      -0.52251405     -0.16868355      1.59241550
H      -0.88635130      1.50235734     -0.93734784
H      -1.54805949      1.86326763      0.67820447
H      -1.70283498     -1.59070760     -0.83535371
H      -2.42827430     -1.47807385      0.78899617
