17
b3lypvtz=-191985.72759104
C      -1.28965159     -0.24676527      1.31505265
C      -0.61662928     -0.01000678     -0.04420558
N      -1.66897347      0.27474401     -1.02222342
C       0.33745370      1.17206896      0.05929528
N       1.57775813      0.92120452      0.08864595
C       1.76298286     -0.53957797      0.00008216
C       0.39788712     -1.13263072     -0.40438378
H      -1.96734788     -1.10228147      1.25658359
H      -1.87075534      0.62612389      1.61274872
H      -0.55023813     -0.45548250      2.08857978
H      -2.35496323     -0.47139533     -1.03744990
H      -1.28417287      0.34679647     -1.95715637
H      -0.03956918      2.18962620      0.13130668
H       2.56228233     -0.76217057     -0.70756977
H       2.10124139     -0.89649369      0.97691248
H       0.17584493     -2.07818695      0.09053506
H       0.36843049     -1.30756880     -1.48140853
