14
b3lypvtz=-201271.91515738
C       3.39286710     -0.10947837     -0.00628350
C       2.10960860     -0.47692379      0.00880058
N       1.09616527      0.47853094     -0.00721907
N      -0.06496128     -0.02743946      0.01291443
C      -1.09799445      0.87294133      0.00826686
C      -2.37574580      0.40723514      0.01348923
N      -2.73489880     -0.89877397     -0.03636770
H       4.18485513     -0.84386091      0.00529314
H       3.66217895      0.93759588     -0.03106782
H       1.80235054     -1.52034449      0.03325103
H      -0.88849346      1.93601138     -0.00078216
H      -3.19533842      1.11380720      0.02660658
H      -3.66944496     -1.17080493      0.20442650
H      -2.00621543     -1.58678595      0.06079390
