15
b3lypvtz=-216898.4915302
C       2.19650752     -0.55120174     -0.10734750
C       0.90768105     -0.81145823     -0.28104535
C      -0.19670208      0.17153534     -0.10265554
C      -0.03160823      1.58393852     -0.45554755
O      -0.74816707      0.71149518     -1.33513944
C      -1.29197411     -0.23231810      0.86473692
O      -1.98373066     -1.38836503      0.41386514
H       2.55199426      0.43205674      0.17565024
H       2.94719546     -1.31933643     -0.23871124
H       0.58395719     -1.81328751     -0.54192520
H      -0.63389509      2.33635087      0.04454604
H       0.92271911      1.93226540     -0.83455718
H      -0.86580407     -0.49001506      1.83511695
H      -1.97851217      0.61021030      1.00084377
H      -2.37966111     -1.17187024     -0.43783006
