18
b3lypvtz=-202822.89791313
C      -2.48741952     -0.54626382      0.34671419
N      -1.04901382     -0.59139829      0.24866815
C      -0.30337417      0.43540972     -0.25116742
N      -0.70208353      1.59941697     -0.60612702
C       1.19620995      0.14055110     -0.31981718
C       1.87434004      0.57128751      0.98192510
N       1.43190382     -1.29613227     -0.54462650
H      -2.96509786     -0.36987619     -0.62398326
H      -2.84722021     -1.49591079      0.73775778
H      -2.81452684      0.24359970      1.02870147
H      -0.56676910     -1.47545224      0.30524224
H      -1.70541782      1.71567186     -0.47920489
H       1.57914041      0.76511428     -1.13097225
H       1.50487450     -0.01803688      1.82266303
H       1.67301347      1.62322010      1.17544331
H       2.95638103      0.43547710      0.91422574
H       1.28263687     -1.53643654     -1.51789410
H       2.39114377     -1.53451130     -0.32533640
