16
b3lypvtz=-204469.89054082
C      -2.13093104     -0.90344621      0.77948080
C      -2.11167547      0.19607966      0.03955623
C      -0.95648666      0.67936720     -0.80156467
N       0.20556527     -0.18302914     -0.82929090
C       1.32596873     -0.12450689     -0.04341904
C       1.46737696      1.07176130      0.87796928
O       2.17672709     -0.99493546     -0.10699344
H      -1.27631222     -1.56486137      0.84114135
H      -3.00708728     -1.17796368      1.35091142
H      -2.99032911      0.83402460      0.00126927
H      -1.30681282      0.82252182     -1.82918991
H      -0.65587731      1.67264007     -0.46301089
H       0.15338313     -1.02303496     -1.38583102
H       0.61943700      1.15943808      1.55853100
H       2.37906824      0.94128915      1.45281103
H       1.53711350      2.00041581      0.30816349
