15
b3lypvtz=-214541.74514415
C       2.60427826     -0.06027898     -0.18310329
N       1.24579271     -0.30855829      0.25212071
C       0.31166456      0.27482361     -0.36301703
N      -1.02358630      0.10150659     -0.02210649
C      -1.37707881     -0.78253020      1.08361549
C      -2.00320858      0.76372463     -0.72869251
O      -3.19002746      0.68471784     -0.51676092
H       3.18406865      0.34678195      0.64782038
H       2.67833699      0.63288128     -1.03215061
H       3.07420955     -1.00472423     -0.46512218
H       0.46215850      0.95811051     -1.20553987
H      -2.45781805     -0.77449289      1.17981535
H      -0.90840435     -0.43305577      2.00219806
H      -1.01809453     -1.79058301      0.88176583
H      -1.58229111      1.39167695     -1.53084292
