13
b3lypvtz=-242070.84855839
C      -2.31149670      1.14694155     -0.00003436
C      -1.42086189      0.16173696     -0.00001634
F      -1.87229499     -1.12908078      0.00001580
N      -0.05904600      0.32150841      0.00001246
C       0.71234500     -0.68933380      0.00007114
O       2.03969182     -0.59090650      0.00003818
C       2.59956437      0.73252601      0.00002185
H      -3.36813010      0.93324264     -0.00003276
H      -1.96834853      2.16810181     -0.00003091
H       0.39783623     -1.72910820     -0.00001951
H       2.28218686      1.27963620      0.88649284
H       3.67605866      0.59092123     -0.00004817
H       2.28207028      1.27966146     -0.88639122
