11
b3lypvtz=-264635.5015894
N      -0.48867057      1.57750652     -0.10602563
C      -0.26933788      0.20679927     -0.01650015
C      -1.24192388     -0.71053575      0.01156100
F      -2.53196325     -0.31674832      0.02734274
C       1.12310813     -0.30163721     -0.00837526
O       1.45616539     -1.46033631     -0.03614460
O       2.02289304      0.71387886      0.05277862
H       0.24686341      2.14488213      0.28233307
H      -1.40966513      1.87145435      0.17967261
H      -1.09171357     -1.77615952      0.01468758
H       2.90009131      0.30442298      0.06312400
