14
b3lypvtz=-203678.4175289
O      -0.61922641      0.20825665      1.94006525
C      -0.25290762      0.17285465      0.59134195
C       1.22332638      0.24515995      0.22449271
C       1.29332974     -0.72154874     -0.93786377
N       0.21525892     -1.33211456     -1.22864721
C      -0.82410227     -0.87365185     -0.33264751
C      -1.23527628      0.57801955     -0.47218707
H      -0.72636692      1.12731379      2.20704507
H       1.84579762     -0.09196394      1.05924810
H       1.56413520      1.24593451     -0.05334428
H       2.20370053     -0.90357094     -1.50152295
H      -1.56179736     -1.59929807     -0.02300597
H      -0.89317383      1.12454953     -1.34260695
H      -2.23269769      0.82005946     -0.13026739
