18
b3lypvtz=-205196.04301053
C       2.54743612      0.12608835     -0.25080704
C       1.29431879     -0.73470760     -0.35185905
N       0.20150807     -0.19619780      0.43484297
C      -1.08185989     -0.92664248      0.43675057
C      -1.80662495      0.44042655      0.46101035
C      -0.47979413      1.03068125     -0.03669495
O      -2.89324472      0.65056285     -0.41408851
H       2.36932001      1.13095489     -0.63858404
H       2.86675095      0.21696920      0.78800428
H       3.36283083     -0.31133312     -0.82907277
H       1.00428826     -0.84649877     -1.41248685
H       1.50694117     -1.73949192      0.02348598
H      -1.22107447     -1.61792626      1.27061070
H      -1.29100985     -1.44254854     -0.51097186
H      -2.04609414      0.76107224      1.47734508
H      -0.50087796      1.12139705     -1.13201691
H      -0.12802824      1.96555769      0.40053734
H      -3.70478585      0.37163645      0.01979670
