12
b3lypvtz=-226246.13926321
O      -1.32253893      1.12032646     -1.70460842
C      -1.37627435      0.14013923     -1.00981022
C      -0.61658082     -0.02741008      0.28077256
C       0.61958156     -0.98411035      0.20790128
C       1.44867748      0.29020129      0.49158469
O       2.61573396      0.55124406      0.56331457
N       0.30678327      1.04776139      0.62525938
H      -2.01584309     -0.72594884     -1.28044726
H      -1.32635130     -0.28574599      1.07376910
H       0.81563909     -1.42342845     -0.76845656
H       0.66794367     -1.74919490      0.97868758
H       0.18322946      2.04606618      0.54213332
