14
b3lypvtz=-201274.9520334
N       2.29309298     -1.05430409     -0.01820091
C       1.32897132     -0.42696764     -0.02526776
C       0.10617136      0.37720792     -0.00052665
N       0.46610966      1.77748560     -0.07643189
C      -0.94460095     -0.10571951     -1.04544597
N      -1.57008459     -0.94048194     -0.00001915
C      -0.91250487     -0.16466591      1.06906656
H      -0.34743521      2.36405537      0.06053858
H       1.16049778      2.02665050      0.61733526
H      -0.57414635     -0.64682499     -1.91532987
H      -1.54409163      0.74977914     -1.37835034
H      -2.58112866     -0.94772203      0.01425721
H      -0.51724930     -0.75733603      1.89444168
H      -1.50144453      0.67101961      1.46661724
