14
b3lypvtz=-180362.5744692
C       2.92641847     -0.95303058      0.00200270
C       1.84943777     -0.41822085     -0.00231572
C       0.59457067      0.26029939     -0.00016240
N       0.68177367      1.65307439     -0.05678355
C      -0.56421520     -0.44800231      0.00104951
C      -1.89052354      0.11419605     -0.02640790
C      -3.02334677     -0.59899470      0.01872088
H       3.86869123     -1.44156254      0.00168608
H      -0.10823891      2.15471338      0.31569578
H       1.55919873      2.02993959      0.26258174
H      -0.47838736     -1.52589848      0.01567543
H      -1.97998794      1.19349200     -0.10987606
H      -3.00885964     -1.67983874      0.08882565
H      -3.99259017     -0.12211160     -0.01621615
