17
b3lypvtz=-194380.39809573
C      -1.21097972     -1.74371300     -0.01055327
C      -1.35401664     -0.26111701      0.15367746
C      -0.38950311      0.65031745      0.35126224
C      -0.74939037      2.09859606      0.58909702
C       1.05357258      0.37726043      0.39636268
C       1.72555348     -0.43146277     -0.42260552
O       3.07783855     -0.60509232     -0.30544600
H      -0.24577446     -2.10298448      0.34635918
H      -1.99731356     -2.26477582      0.54109189
H      -1.31278026     -2.05264376     -1.05661152
H      -2.37567030      0.10688998      0.13414333
H      -0.30970116      2.74582761     -0.17458421
H      -1.82854209      2.24919783      0.58867720
H      -0.35885617      2.44129010      1.55209488
H       1.63613577      0.93579750      1.12389657
H       1.24685406     -0.97609877     -1.22759070
H       3.39247340     -1.16748900     -1.01737121
