15
b3lypvtz=-214523.72236925
C      -2.07987643     -0.10791605      0.61732132
C      -1.96770308     -0.04596849     -0.88052468
C      -0.80712799      0.38957989     -0.02104539
N       0.32193164     -0.47893771      0.02985120
C       1.49051635     -0.01134472      0.09304282
N       2.60999436     -0.81675664      0.31241085
O       1.79796480      1.32072115     -0.00083805
H      -2.03337734     -1.08195095      1.08270686
H      -2.70940067      0.61216314      1.12179245
H      -2.51954115      0.71653321     -1.41284629
H      -1.84712978     -0.97923521     -1.41152020
H      -0.61710059      1.45493592      0.03392547
H       2.35341628     -1.79311288      0.33587741
H       3.36551409     -0.65200044     -0.34001859
H       2.64191950      1.47328975      0.43986484
