14
b3lypvtz=-226981.98961574
C       1.22213352     -1.75543885     -0.73740140
N       1.33291337     -0.50516397     -0.53263237
C       0.22976637      0.27028905     -0.14889352
C       0.51534642      1.56154673      0.09151169
O      -0.42115965      2.46647313      0.48321322
C      -1.16607002     -0.27930437     -0.03369731
O      -1.31437560     -1.25681753      1.00458707
H       2.10707458     -2.30295704     -1.05066491
H       0.30219081     -2.32501112     -0.60336849
H       1.53275943      1.91437857     -0.02609038
H      -0.01431413      3.33147705      0.57680437
H      -1.43734826     -0.80123754     -0.95385781
H      -1.87302536      0.54174198      0.10158891
H      -1.01579148     -0.85997610      1.82890092
