19
b3lypvtz=-192728.23200383
C      -1.86773125     -1.32053276     -0.03055808
C      -0.89818704     -0.15976436     -0.10018170
C       0.54484091     -0.45739871     -0.30730547
N      -0.28583215      0.02558289     -1.43504786
C       1.69781000      0.36581618      0.22495297
N       2.92283208      0.31530435     -0.58120155
C      -1.35376199      1.05989556      0.67286053
H      -1.98500751     -1.67087584      0.99781160
H      -2.85199554     -1.02135514     -0.39910114
H      -1.51876613     -2.15076314     -0.64304765
H       0.80081964     -1.50989023     -0.41356881
H      -0.10035206      1.01465470     -1.58579817
H       1.40924278      1.41394183      0.32104653
H       1.95151327      0.02272653      1.23188601
H       2.72298913      0.58981515     -1.53700850
H       3.27079003     -0.63597126     -0.62820451
H      -0.65773169      1.89368678      0.59458647
H      -1.47923491      0.82624660      1.73265061
H      -2.32223759      1.39888087      0.29624897
