15
b3lypvtz=-191185.36645336
C       2.35399250     -0.73591399     -0.26148045
N       1.50323103      0.40973409     -0.55192310
C       0.33524627      0.43374704     -0.10957287
C      -0.76724556      1.47817320     -0.14716869
C      -1.57476889      0.47395144      0.67287407
N      -0.39755710     -0.49877031      0.75321164
C      -1.64548220     -0.82972771      0.00580510
H       2.62124332     -1.22275984     -1.20166608
H       3.28315541     -0.37691196      0.18444631
H       1.89621938     -1.47119867      0.40465202
H      -1.16501438      1.76509760     -1.12069679
H      -0.48936616      2.37489728      0.40545819
H      -2.14394095      0.70712381      1.56122761
H      -1.59902976     -0.88722042     -1.07614644
H      -2.21068292     -1.62022156      0.48097950
