15
b3lypvtz=-240230.11174685
C       2.92489038     -0.46789815     -0.32189089
C       1.77158920      0.34449679      0.22556648
O       0.55694030     -0.37025163     -0.02838005
C      -0.59790153      0.26620228      0.45615278
O      -0.92321668      1.44545759     -0.20429257
C      -1.69737591     -0.78284757      0.28688492
O      -2.66488935     -0.58229064     -0.39828544
H       2.97060529     -1.44767689      0.15413692
H       3.86764652      0.04955489     -0.13847431
H       2.81592308     -0.61267809     -1.39674231
H       1.87685242      0.49692996      1.30732366
H       1.72059192      1.32673900     -0.25011866
H      -0.46876251      0.50642122      1.52218536
H      -1.60491162      1.22768815     -0.85819214
H      -1.52785350     -1.74269892      0.80392724
