12
b3lypvtz=-226238.67257191
C      -1.17431861      0.04727839     -0.43293143
C      -1.94968288      0.41194302      0.75773248
N      -2.50739916      0.73773193      1.70999970
C       0.30242717      0.05609066     -0.15575650
C       1.11698905     -0.96880020     -0.40151704
O       2.45557297     -0.94650550     -0.18721841
O       0.85939202      1.24397261      0.29242696
H      -1.48759212     -0.94037756     -0.77353870
H      -1.42500332      0.76401133     -1.22220545
H       0.76537217     -1.90084500     -0.81774624
H       2.67979787     -0.07916078      0.17805366
H       0.36444483      1.57466112      1.05270099
