17
b3lypvtz=-215252.72700757
C      -3.13464381     -0.73177287      0.14202414
N      -1.83197918     -0.34632949     -0.38544310
C      -1.17808485      0.69358394      0.39911248
C       0.11957999      1.18824123     -0.25499440
C       1.16977256      0.13115016     -0.38612469
N       2.23567171      0.20326793      0.29807304
O       3.08844831     -0.88649057      0.04191442
H      -3.54224396     -1.55044804     -0.45132832
H      -3.82418297      0.11106845      0.06088767
H      -3.11724520     -1.04689662      1.19707194
H      -1.23788435     -1.16529442     -0.43056603
H      -0.96434305      0.37866740      1.43359709
H      -1.86854923      1.53839249      0.46680928
H       0.52790542      2.00867456      0.33595655
H      -0.12487901      1.56968241     -1.25018593
H       1.02045256     -0.70105955     -1.07456433
H       3.84630907     -0.69738400      0.60402719
