15
b3lypvtz=-191222.19988523
C      -2.02054697     -1.07565948     -0.39610184
C      -1.21193736     -0.09707905      0.01905550
C      -1.34923711      1.32117915     -0.45735651
N      -0.22946320     -0.32354422      1.00171489
C       1.05905816      0.34195190      0.94140462
C       1.91511572     -0.05760190     -0.19526440
N       2.55945711     -0.39526106     -1.08672218
H      -2.83885432     -0.86909306     -1.06820242
H      -1.89970689     -2.09756735     -0.05974218
H      -0.48015562      1.64122297     -1.03763070
H      -2.22321460      1.41594158     -1.09689020
H      -1.45953344      2.01047472      0.38366164
H      -0.14159486     -1.30233139      1.23520876
H       0.92132432      1.42217474      0.90144740
H       1.60280406      0.13176744      1.86327762
