14
b3lypvtz=-227005.40821283
C      -2.36614594     -0.15323705     -1.23574727
C      -1.18009773     -0.20922182     -0.33913721
O      -1.47236010     -0.62241648      0.91900899
C       0.07891020      0.10788267     -0.69260737
N       1.07851618      0.00042936      0.26979268
C       2.27714803      0.28044279      0.00591736
O       3.22967683      0.16544115      0.96596933
H      -2.83222644     -1.13851280     -1.31207837
H      -2.08733980      0.18298056     -2.23260753
H      -3.11813391      0.52776259     -0.83011035
H      -0.62995266     -0.61867473      1.40490221
H       0.30556855      0.43822055     -1.70182453
H       2.63333997      0.62266763     -0.97082519
H       4.08299683      0.41623559      0.59944726
