15
b3lypvtz=-191198.87915451
C      -1.17054676      1.80164851      0.38000504
C      -0.82221264      0.53788999      0.16531720
C       0.42217446     -0.14201556     -0.41464061
C      -0.46180691     -1.43315269     -0.42913524
N      -1.46405969     -0.69241105      0.35673026
C       1.61018220     -0.18852272      0.50058417
N       2.80268116      0.14480779      0.23698661
H      -0.47474057      2.60029423      0.17087382
H      -2.14385499      2.06551293      0.77105117
H       0.71276359      0.21918252     -1.40079160
H      -0.05469081     -2.30926392      0.07697539
H      -0.78157552     -1.70830337     -1.43676019
H      -2.45949944     -0.81513681      0.24211738
H       1.40125428     -0.55576219      1.50854088
H       2.88393163      0.47523237     -0.72785427
