11
b3lypvtz=-215384.53819636
C      -2.73322326     -0.39140741     -0.00008863
C      -1.61117786      0.03597900     -0.00019601
C      -0.27061925      0.57363299     -0.00026462
O      -0.03355911      1.76123012     -0.00075929
C       0.88021842     -0.46639426      0.00038290
C       2.26971859      0.10297026      0.00010818
O       0.61894389     -1.64315050      0.00098088
H      -3.72505376     -0.77275350      0.00012373
H       2.99334521     -0.70743513      0.00043405
H       2.41286704      0.74225544     -0.87292570
H       2.41292811      0.74299700      0.87258952
