12
b3lypvtz=-249573.0379919
C       2.47234481     -0.34459172     -0.00056151
O       1.06473986     -0.65454529     -0.00074211
C       0.23296304      0.40963011      0.00080564
O       0.58989110      1.55080359      0.00223993
C      -1.25744061     -0.01717522      0.00069381
N      -1.46554633     -1.35619632     -0.00067612
O      -2.12726941      0.82122743      0.00167749
H       2.72968996      0.23446751     -0.88536022
H       2.73092692      0.22744265      0.88846184
H       2.98437876     -1.30167435     -0.00463550
H      -2.41265888     -1.69433291     -0.00076464
H      -0.69772822     -2.00233849     -0.00137461
