16
b3lypvtz=-232745.78036072
C       0.49836122      1.71777541     -0.23757473
C      -0.00675858      0.31718233      0.07082545
C       1.07299131     -0.55594998      0.68076066
F       2.13488805     -0.71180963     -0.21505705
C      -0.79640306     -0.41646352     -1.03886878
O      -1.89787370     -0.67997268     -0.13683015
C      -1.32923988      0.19027344      0.86428150
H       1.34138889      1.68196557     -0.92848684
H       0.83508722      2.22130086      0.67200096
H      -0.28667828      2.32641617     -0.68782608
H       1.47682254     -0.10602580      1.59184723
H       0.69013566     -1.55263721      0.90956917
H      -0.35661787     -1.33409467     -1.43305884
H      -1.10245593      0.22653682     -1.86929243
H      -1.88572609      1.12841481      0.95312319
H      -1.27835650     -0.29033993      1.84548774
