16
b3lypvtz=-204440.32288427
C       1.48990053     -1.20241931      0.45302475
C       1.13167394      0.17039927     -0.05101065
N       1.82367815      1.22630456      0.08788108
C      -0.12779487      0.30914679     -0.85798324
O      -0.99981858     -0.82316847     -0.95918302
C      -1.47932161      0.34022899     -0.27235416
C      -1.78053328      0.23508543      1.19578372
H       2.39756060     -1.16737736      1.05466140
H       1.64768393     -1.87641299     -0.39248395
H       0.68163772     -1.64096688      1.03778408
H       2.66789551      1.04323464      0.63077602
H       0.01991844      0.85689171     -1.78429947
H      -2.22522422      0.88945021     -0.84325007
H      -2.71828665     -0.30184400      1.35011780
H      -0.99642210     -0.28218261      1.74441191
H      -1.89205151      1.23447102      1.62099581
