15
b3lypvtz=-214528.43635847
C      -2.25908981      1.13233356     -0.44605656
C      -1.90059604      0.08338993      0.58772346
O      -1.23548333     -1.05699708     -0.02103045
C       0.07630394     -0.99881832     -0.20045901
N       0.81147205     -0.01144639      0.12047892
C       2.18296483     -0.14054790     -0.13165895
N       3.05610747      0.73779135      0.12644970
H      -2.83458541      1.92843255      0.02973005
H      -2.86726210      0.70141279     -1.24171575
H      -1.36363632      1.57234835     -0.88180434
H      -1.25354454      0.48979002      1.36238564
H      -2.78979836     -0.34782443      1.04302133
H       0.44042078     -1.92125521     -0.65886845
H       2.51531228     -1.07927384     -0.58915649
H       2.60660155      1.55343160      0.54788490
