17
b3lypvtz=-191975.4235529
C      -0.67617769     -1.21168432     -0.18201209
C      -0.74653960     -0.10303532      0.87718131
C      -1.02963541      1.12238503     -0.00841524
N      -0.25420549      0.80635199     -1.24388062
C       0.42212141     -0.47850461     -0.96450683
C       1.48704082     -0.30255744      0.13141097
N       0.65390117     -0.09060805      1.35145327
H      -0.35739226     -2.16656293      0.23084559
H      -1.59325131     -1.32846942     -0.75581045
H      -1.44698384     -0.24935868      1.69737704
H      -2.09493650      1.23332146     -0.23759967
H      -0.69622411      2.04662905      0.47179915
H       0.41545602      1.53366459     -1.45824619
H       0.77621834     -0.95274768     -1.87798562
H       2.11978506     -1.18954360      0.24367377
H       2.14208641      0.54672667     -0.08266863
H       0.87873696      0.78399325      1.80738426
