11
b3lypvtz=-215357.48658297
C       2.51448074      0.79950041      0.12193748
C       1.53598967      0.10871654      0.09184390
C       0.36407356     -0.77909967      0.06124482
O      -0.56296860     -0.44889892      1.10429902
C      -1.60760989      0.19885592      0.45902901
C      -1.48609675      0.08359139     -0.85243775
O      -0.35179927     -0.64907004     -1.17448813
H       3.37497102      1.42110021      0.14714499
H       0.67062340     -1.81876770      0.18095221
H      -2.35297460      0.66277621      1.07735887
H      -2.09878927      0.42139566     -1.66708441
