13
b3lypvtz=-242068.72236177
C       1.31778764      0.53683115     -0.22852652
C       2.38342145     -0.06205917     -0.74539945
F       3.57549165      0.55979205     -0.79900763
C       0.01602378     -0.09707985     -0.15259210
C      -1.07258865      0.49625986      0.36977950
N      -2.29623311     -0.25275405      0.37912748
O      -0.05579654     -1.35878501     -0.64995470
H       1.40691960      1.54362450      0.15712143
H       2.40992552     -1.05914071     -1.15849692
H      -1.01800541      1.50149176      0.77015464
H      -3.02677491      0.20090607     -0.15773965
H      -2.65534953     -0.38753384      1.31737929
H      -0.98482149     -1.62155275     -0.51407282
