10
b3lypvtz=-223030.72203432
N       2.87424824     -0.11804368     -0.29720329
N       1.66830632     -0.16637525     -0.42739071
O       1.07888729      0.30037678      0.79042090
C      -0.27678604      0.29599800      0.77270579
C      -1.09191617     -0.08225851     -0.21837376
C      -2.49903037     -0.01574025     -0.05201584
N      -3.64680817      0.02941252      0.05949690
H       3.25794034     -0.45848457     -1.18577852
H      -0.64908542      0.65979294      1.72043407
H      -0.71575602     -0.44467798     -1.16229554
