14
b3lypvtz=-224580.71224578
C       2.62952875      0.43906807     -0.01692293
C       1.40625798     -0.42610961     -0.01618148
N       1.43376943     -1.68149695     -0.09995987
O       0.29085378      0.38336818      0.09003718
N      -0.92524240     -0.35008096      0.10799107
C      -1.90363328      0.46736163      0.14653130
N      -3.19494913      0.03249714      0.27407002
H       3.50926306     -0.19160104     -0.10090252
H       2.68345512      1.02404120      0.90259727
H       2.60021075      1.14148933     -0.85148191
H       0.48800028     -2.05899096     -0.07827101
H      -1.75702581      1.54440447      0.12917990
H      -3.34871565     -0.95359464      0.12976740
H      -3.91177288      0.62964411     -0.10134046
