14
b3lypvtz=-201316.51010961
C      -1.90385746     -1.04303032     -0.00003041
C      -0.49092764     -0.56468041     -0.00001695
C      -0.02837407      0.72945754     -0.00001341
N      -0.62777790      2.00795843     -0.00001919
N       1.35083803      0.62104799      0.00003872
H       1.98248731      1.40347279      0.00011545
C       1.65387382     -0.70127830      0.00003834
N       0.57144121     -1.44268275      0.00014377
H      -2.10950754     -1.65791082      0.87865833
H      -2.10920018     -1.65864354     -0.87827343
H      -2.60293610     -0.20592418     -0.00049564
H      -1.19639802      2.17280221      0.82009365
H      -1.19559129      2.17319376     -0.82061605
H       2.66791083     -1.06704740     -0.00004016
