14
b3lypvtz=-203692.75125718
C      -2.63299687     -0.28913378     -0.04542117
C      -1.35197604     -0.59286489     -0.23612821
C      -0.27304230      0.40145785      0.04361777
O      -0.52439703      1.56923700      0.26921905
C       1.15027388     -0.09571172      0.01985929
C       2.13387148      0.77365518     -0.23642070
N       1.32878194     -1.47945095      0.15689468
H      -2.91350116      0.68757050      0.32810200
H      -3.42253460     -0.99720548     -0.25849034
H      -1.05645109     -1.56408207     -0.60987168
H       1.89552007      1.80912248     -0.41909991
H       3.17031805      0.46597825     -0.28455121
H       0.77683291     -1.90613752      0.88693785
H       2.29603177     -1.75737785      0.23446959
