16
b3lypvtz=-181085.72490221
C       1.23773544     -0.09562365     -0.02089608
C       0.51745380     -0.25711373     -1.12512484
C      -0.95718077     -0.06757045     -1.20875244
C      -1.81371848      1.19705134     -0.93105817
N      -2.88777437      0.17559207     -1.33503799
C      -1.88696315     -0.23129118     -2.43084430
C      -2.09629887     -0.79778368     -0.44813276
H       0.78301112      0.19405120      0.91961738
H       2.30893554     -0.24680485     -0.01458694
H       1.01746312     -0.54844063     -2.04458843
H      -1.90233181      1.53868329      0.10026093
H      -1.72104167      2.03321902     -1.62428063
H      -1.80680575      0.49845046     -3.23727057
H      -2.05311628     -1.23725017     -2.81774544
H      -2.20550974     -0.60318213      0.61884645
H      -2.27075813     -1.84758695     -0.68450617
