14
b3lypvtz=-227009.62672684
C      -1.91786945     -0.60434731     -0.66226467
N      -1.14066359     -0.12528649      0.48519971
C      -0.63125163      1.21547137      0.30968279
O       0.68057731      1.10650838     -0.31600134
C       1.17426800     -0.13065462     -0.04427228
O       2.27161740     -0.49013001     -0.35355935
C       0.08331284     -0.89927235      0.70348475
H      -2.79258945      0.03188814     -0.79179808
H      -1.35390989     -0.61930170     -1.60553091
H      -2.26998553     -1.61415316     -0.45567882
H      -0.48934570      1.71187422      1.27215940
H      -1.26386271      1.81954410     -0.33525068
H       0.00432048     -1.92100983      0.34186662
H       0.34822793     -0.93320875      1.76472785
