15
b3lypvtz=-216922.53724143
C      -2.67695640      0.32488238     -0.63740899
C      -1.81880225      0.34666525      0.62850454
C      -0.66778487     -0.67478772      0.63875675
C       0.37327753     -0.38568388     -0.40446674
O       1.74980417     -1.05711681     -0.19034527
C       1.63414136      0.26504933     -0.11283648
O       2.32481198      1.20519785      0.10744205
H      -3.51550475      1.01610839     -0.54679119
H      -3.08754397     -0.67097897     -0.81862040
H      -2.11215681      0.61872858     -1.52374466
H      -1.41036906      1.34843565      0.78404060
H      -2.45123818      0.13704815      1.49374395
H      -1.06580789     -1.68020036      0.47035064
H      -0.18916942     -0.67679898      1.61912118
H       0.07287456     -0.46312985     -1.44337998
