19
b3lypvtz=-192745.05598463
C      -1.37714970      0.86084356      1.26475135
C      -0.78845410     -0.30785104      0.45464431
C      -1.77482264     -0.77328734     -0.63053431
C       0.57774909      0.01676925     -0.10448680
C       1.67589086     -0.62716384      0.31323671
N       3.00647373     -0.28066419     -0.00726987
N       0.65513870      1.10522906     -1.01032372
H      -1.54304100      1.73966795      0.63829147
H      -2.33737226      0.58082732      1.70307164
H      -0.70349863      1.15225444      2.07081923
H      -0.64264352     -1.14289994      1.14393893
H      -2.00294476      0.02108583     -1.34598540
H      -2.72217271     -1.07721727     -0.18139314
H      -1.37453429     -1.62105353     -1.18797931
H       1.57840829     -1.43546564      1.02533655
H       3.09787876      0.54587708     -0.57796956
H       3.56117393     -1.03620474     -0.38447702
H      -0.23043949      1.31718574     -1.44565440
H       1.34435976      0.96206729     -1.73801664
