17
b3lypvtz=-191969.1446178
C      -1.31542191     -0.01510935     -1.16216796
C      -0.25091047     -0.18156312     -0.08460517
C      -0.86712846     -0.51747094      1.27493514
N       0.86361280     -1.10120566     -0.49634093
C       1.90469977     -0.07487620     -0.19787460
C       0.79848344      0.94009265     -0.00279327
N       0.81995556      2.18945301      0.12846963
H      -1.99522560      0.80463784     -0.91768288
H      -0.85459656      0.18836374     -2.12764006
H      -1.90737413     -0.92826938     -1.25343267
H      -1.56884095      0.25687132      1.59053257
H      -1.41695397     -1.46000753      1.21441341
H      -0.10217787     -0.61396752      2.04713116
H       0.93284696     -1.93164756      0.07861395
H       2.59271646      0.11926517     -1.02245592
H       2.48898322     -0.24771297      0.71181239
H      -0.12276829      2.57344649      0.21918522
