12
b3lypvtz=-252155.50944409
N       1.29449554     -1.52163952     -0.03341275
C       1.18314789     -0.24808143     -0.00299274
N       2.13998404      0.71465843      0.05333324
C      -0.22683529      0.32211816     -0.00875667
O      -0.41497147      1.51362904     -0.04029830
C      -1.35274730     -0.69252559      0.02272396
F      -2.57064169     -0.05182174      0.01096987
H       2.26556018     -1.83191599     -0.03115879
H       3.10775553      0.48923439     -0.08821056
H       1.84183453      1.67175046     -0.04496437
H      -1.27785474     -1.35563642     -0.84073461
H      -1.27033522     -1.30655579      0.92166772
