14
b3lypvtz=-222165.42278379
C       1.78615580     -0.34305552      0.57905197
N       0.97681151      0.54751925      0.16819553
N      -0.35172832      0.18694461      0.04944908
C      -1.15977369      0.98541445     -0.72641868
N      -2.35379063      0.70527943     -1.08327176
N      -2.78256134     -0.58048893     -0.62878102
N       3.10296595     -0.04978577      0.87816877
H       1.48917789     -1.37434441      0.78436952
H      -0.58552255     -0.80299770      0.02815794
H      -0.72866915      1.93387671     -1.01888978
H      -2.83960280     -0.57765699      0.38991127
H      -3.72842452     -0.69354239     -0.96833143
H       3.41108122      0.85147520      0.54297585
H       3.76388062     -0.78863794      0.69763096
