13
b3lypvtz=-190441.37619853
N      -2.18848618     -0.51534687     -0.03783120
C      -0.99315804     -0.08406915     -0.04944558
C      -0.46468668      1.28658990      0.15493838
C       0.85109923      1.31605761     -0.08895199
C       1.37269505     -0.04914570     -0.40746695
N       1.25448005     -1.05385030      0.66653273
C       0.19425081     -0.95679624     -0.35431998
H      -2.84499594      0.23607879      0.17922003
H      -1.07683123      2.11701750      0.47855114
H       1.48592944      2.18932070     -0.02919851
H       2.20613950     -0.18311383     -1.08294582
H       0.96308602     -0.60670918      1.53149550
H       0.05927595     -1.82824722     -0.97815174
