13
b3lypvtz=-237048.06882267
C       2.34422278     -0.48715515      0.61666209
N       1.63041591     -0.07336878     -0.60059382
N       0.66962253      0.95215065     -0.29468172
C      -0.50317795      0.50764674     -0.06767970
O      -1.47106465      1.36022928      0.30012629
C      -0.97298676     -0.91034046     -0.22025372
O      -2.11566033     -1.19450546      0.06389834
H       3.19914585     -1.09291490      0.31601351
H       2.69319283      0.36161193      1.21514660
H       1.69422492     -1.10284858      1.23870303
H       2.30220292      0.40633237     -1.18783117
H      -2.27543819      0.82527221      0.41556380
H      -0.25810088     -1.63156285     -0.62855553
