21
b3lypvtz=-172601.23234535
C      -2.64835954     -0.21580377     -0.00000019
C      -1.26863021      0.41866758      0.00000008
C      -0.24790570     -0.02160980     -1.08228401
C       0.87585170     -0.04665873     -0.00000004
C       1.78207377     -1.27113710     -0.00000038
C       1.70441694      1.23768432      0.00000039
C      -0.24790577     -0.02161067      1.08228388
H      -2.57742121     -1.30639794     -0.00000061
H      -3.22214626      0.07951522      0.88191386
H      -3.22214622      0.07951590     -0.88191403
H      -1.37024307      1.50590142      0.00000053
H      -0.09914712      0.64249788     -1.93534608
H      -0.46953626     -1.02309725     -1.45767861
H       2.42790620     -1.28312290     -0.88226902
H       2.42790597     -1.28312353      0.88226842
H       1.20025765     -2.19492662     -0.00000078
H       2.34624214      1.28711749     -0.88326612
H       2.34624219      1.28711690      0.88326689
H       1.07114434      2.12703971      0.00000069
H      -0.09914726      0.64249631      1.93534651
H      -0.46953631     -1.02309844      1.45767762
