14
b3lypvtz=-257908.74364112
C      -2.35740622     -0.61538884     -0.22581801
N      -1.44368178     -0.09227079      0.46629431
C      -0.26932142      0.42584817     -0.21833738
C      -0.15077031      1.92935828      0.03278540
C       0.94212236     -0.31612181      0.33350811
F       0.87203832     -1.63973101      0.00177162
F       2.08860953      0.17461523     -0.23067882
H      -2.31297186     -0.70790379     -1.31737908
H      -3.24521352     -1.00166073      0.26953824
H      -0.29661975      0.22394135     -1.29883844
H      -1.01577292      2.44305197     -0.38509629
H      -0.12019434      2.13798819      1.10281006
H       0.74993848      2.32626383     -0.43228807
H       1.03062842     -0.24192005      1.41852934
