15
b3lypvtz=-216897.23928484
C      -0.38608279      0.46440723      1.45863060
C      -0.27412762     -0.13115066      0.27690932
C      -1.46215484     -0.50814498     -0.57736578
O      -2.71626043     -0.07750347     -0.08002713
C       1.04243274     -0.51818302     -0.30782409
C       2.21474893      0.35700380     -0.29172046
O       1.45463430      0.19070808     -1.49278259
H      -1.35685029      0.69385994      1.87625602
H       0.48426185      0.71826912      2.04841740
H      -1.28896819     -0.14134850     -1.59623426
H      -1.52505043     -1.59834726     -0.64660318
H      -2.75395385      0.88199452     -0.14555039
H       1.21855449     -1.59056831     -0.37922664
H       2.13959484      1.33620873      0.16804563
H       3.20922129     -0.07740521     -0.31102446
