19
b3lypvtz=-171838.54152382
C      -1.31138722      1.96471306     -0.15539954
C      -1.45989171      0.76423127      0.40193766
C      -0.82019516     -0.49731184     -0.01150568
C      -1.74928212     -1.68822543     -0.02571738
C       0.47626016     -0.63717423     -0.32192133
C       1.57048698      0.38855564     -0.28894535
C       2.85043950     -0.15029574      0.36142158
H      -0.67341526      2.12498192     -1.01416506
H      -1.84755351      2.82566450      0.22197169
H      -2.16638758      0.66932798      1.22399262
H      -1.22365330     -2.60214178     -0.30030459
H      -2.20411853     -1.83963116      0.95786743
H      -2.57142225     -1.53981361     -0.73110549
H       0.80410734     -1.63524409     -0.60481625
H       1.80600927      0.70490651     -1.31225034
H       1.23449479      1.28433166      0.23434604
H       2.67298269     -0.43212695      1.40071494
H       3.64342916      0.59908175      0.34663102
H       3.21880674     -1.03444845     -0.16332096
