14
b3lypvtz=-203694.95729184
C       2.41252239      0.55504633     -0.32701939
N       1.45344924     -0.52657050     -0.50734675
C       0.23031327     -0.27579870     -0.42666286
C      -0.93042595     -1.24011149     -0.57938099
C      -2.11615677     -0.33848963     -0.37520435
C      -1.66782082      0.88902256     -0.15322451
O      -0.28853760      0.99889952     -0.16963814
H       3.41985431      0.15649856     -0.43018195
H       2.27324910      1.34593637     -1.06964803
H       2.31992033      1.01618781      0.66053946
H      -0.86025440     -2.04245906      0.15855804
H      -0.90669896     -1.71381945     -1.56346601
H      -3.15022192     -0.63713096     -0.40409479
H      -2.18909221      1.81278864      0.03707026
