19
b3lypvtz=-171838.51784789
C       1.74142556     -0.73480731     -0.22142683
C       1.74141931      0.73481095      0.22143518
C       0.34011244      1.22643675     -0.17634070
C      -0.56835244     -0.00000111     -0.00000378
C       0.34011352     -1.22644043      0.17632438
C      -1.86979767      0.09357608      0.74815826
C      -1.86980794     -0.09357572     -0.74814768
H       2.54191222     -1.32201598      0.22992507
H       1.86640681     -0.79135569     -1.30638888
H       2.54191153      1.32202227     -0.22990346
H       1.86638109      0.79136065      1.30639945
H       0.00853709      2.08159859      0.41447541
H       0.34526765      1.54075233     -1.22402409
H       0.34525545     -1.54077416      1.22400220
H       0.00854754     -2.08159284     -0.41451068
H      -2.16312661     -0.74729280      1.36411646
H      -2.16816917      1.05759915      1.13992647
H      -2.16314384      0.74729355     -1.36410205
H      -2.16818654     -1.05759829     -1.13991170
