16
b3lypvtz=-204433.46210984
C      -1.03574557      1.10039226      0.54428740
C      -2.22011700      0.34283752     -0.09087299
N      -1.24404303     -0.59345031     -0.69574699
C      -0.20800536     -0.19394829      0.30014198
C       1.18439627     -0.10405114     -0.21468875
C       2.22177650     -0.69448033      0.37351573
O       3.52332643     -0.65476289     -0.02496612
H      -0.68874174      1.92444543     -0.07722748
H      -1.13590237      1.43721818      1.57348349
H      -2.87048928     -0.11051019      0.66647867
H      -2.84053923      0.87845580     -0.81094483
H      -1.49882693     -1.57415641     -0.69307245
H      -0.22510077     -0.81932328      1.20293469
H       1.32742193      0.47205403     -1.12551142
H       2.11545454     -1.29058015      1.27171069
H       3.59513560     -0.12014023     -0.82432403
