17
b3lypvtz=-191966.85142835637
C       0.00833852     -1.54346934      0.25414722
C      -1.10203538     -0.66818213     -0.35144054
C      -0.47359681      0.72321198     -0.54644856
N       0.58977770      0.83367993      0.50490230
C       0.91662289     -0.53584931      0.95521798
C       1.87546972      0.23041182      0.13100966
N      -1.46920051      1.76735636     -0.47555464
H      -0.38832063     -2.27669356      0.95537802
H       0.54959329     -2.09722065     -0.51583625
H      -1.92849648     -0.57130000      0.35743747
H      -1.51722124     -1.06279633     -1.27799068
H       0.00023641      0.79875983     -1.52957792
H       1.10092447     -0.65762556      2.01606673
H       2.74895389      0.69013108      0.57841219
H       2.00912740     -0.08151045     -0.90110196
H      -1.88760812      1.77815089      0.44900870
H      -1.03256512      2.67294545     -0.60362973
