18
b3lypvtz=-202799.73220863
N       2.31745604     -0.57033466     -0.35355947
C       1.07778898     -0.26292042      0.33417463
C       0.00000046     -1.36827871      0.38244971
C      -1.07778858     -0.26292100      0.33417303
N      -2.31745448     -0.57033587     -0.35356289
C       0.00000036      0.69403388     -0.24884836
N      -0.00000038      2.07299813      0.21339571
H       2.97078571      0.20258234     -0.30632083
H       2.15029471     -0.76739015     -1.33374245
H       1.32156608      0.06803715      1.34530726
H       0.00000130     -1.95192644     -0.54210861
H       0.00000002     -2.05553871      1.22598722
H      -1.32156736      0.06803642      1.34530531
H      -2.97078464      0.20258076     -0.30632514
H      -2.15029162     -0.76739120     -1.33374565
H       0.00000120      0.58449903     -1.34726384
H       0.81105630      2.57067104     -0.13913040
H      -0.81105709      2.57067042     -0.13913123
