18
b3lypvtz=-181919.26976999
N      -2.35577462     -0.06300371      0.07744537
C      -0.94427115     -0.03265336     -0.32241469
C      -0.31660246      1.29251851      0.11758040
C       1.18624771      1.26623618      0.05142698
C       1.89574423      0.14687748     -0.06006310
C       1.27493402     -1.22267128     -0.11074200
C      -0.19640744     -1.20253827      0.31650787
H      -2.85885372      0.71205380     -0.34102721
H      -2.79942634     -0.90995671     -0.26062211
H      -0.81673831     -0.11324022     -1.41359112
H      -0.64877389      1.51364794      1.13861340
H      -0.69854264      2.10967692     -0.50389667
H       1.69876372      2.22096973      0.09915737
H       2.97747951      0.20350195     -0.11875785
H       1.37050027     -1.62718372     -1.12589129
H       1.83990245     -1.90744549      0.52809585
H      -0.27092924     -1.10382968      1.40275471
H      -0.67988908     -2.14671606      0.05049009
