16
b3lypvtz=-204428.05185493
C      -0.00329150      1.38880300      1.15621070
C      -0.08528038      0.33497172      0.34954862
C      -1.06565355     -0.78946411      0.58113615
N      -2.02141402     -0.87948068     -0.53248419
C       0.77731216      0.19089820     -0.85592955
C       2.22580009     -0.05584293     -0.74845151
O       1.72454384      1.22493793     -1.13118577
H       0.69676586      2.18872773      0.95780483
H      -0.63362602      1.47348034      2.03222208
H      -1.53430271     -0.65173861      1.56326969
H      -0.52310251     -1.73962839      0.61673446
H      -2.64127301     -0.07760844     -0.52445213
H      -2.59951175     -1.70587553     -0.44031329
H       0.26710312     -0.19601629     -1.73207438
H       2.67625350     -0.09892297      0.23803665
H       2.73967691     -0.60724098     -1.53007237
