12
b3lypvtz=-252148.51893835
C      -1.90329154     -0.59939508      0.18173229
N      -0.45445882     -0.53954266      0.29731547
C       0.15333433      0.41698970     -0.25032308
N       1.55789430      0.60447430     -0.22125022
C       2.25453698     -0.23433032      0.38890427
F       3.57430999     -0.08506351      0.43342173
O      -0.45659223      1.40599301     -0.94796473
H      -2.22392430     -0.66038915     -0.86239525
H      -2.38085826      0.28395013      0.61575017
H      -2.26399253     -1.48143980      0.70701378
H       1.91121556     -1.11859528      0.91782374
H       0.23182650      2.00734867     -1.26002818
