16
b3lypvtz=-181116.48321406
C       2.92432761     -0.64336251      0.38649160
C       1.80584120     -0.21877476      0.28278106
C       0.45077524      0.33849110      0.13679221
N       0.41904405      1.62769497     -0.58872032
C      -0.46500681     -0.66357863     -0.53711081
C      -1.77082110     -0.78841572     -0.31852447
C      -2.61984001      0.01152330      0.61903727
H       3.91101156     -1.02238893      0.48226286
H       0.07476583      0.54113732      1.14242910
H       1.12679500      2.24658122     -0.20592909
H       0.67103455      1.47094069     -1.55918614
H       0.01046454     -1.31251822     -1.26358129
H      -2.29771779     -1.54824905     -0.88821465
H      -3.11735011     -0.63891181      1.34364558
H      -2.05613766      0.76820022      1.16063744
H      -3.41073809      0.52528180      0.06601867
