13
b3lypvtz=-213768.72243561
C       2.83647726     -0.56874116      0.00001945
C       1.57983876      0.22219598      0.00000887
N       0.43008791     -0.32616560     -0.00004191
C      -0.69273524      0.56152632     -0.00004564
O      -0.64038154      1.76944812     -0.00010252
C      -2.01508099     -0.15542425      0.00001306
N      -2.16779138     -1.41092871      0.00001860
H       3.43907672     -0.30581419      0.87436765
H       3.43915664     -0.30572133     -0.87424535
H       2.63355949     -1.63694937     -0.00004528
H       1.66877104      1.31351409      0.00006323
H      -2.88024098      0.50607766      0.00001183
H      -1.24595568     -1.85824656      0.00000002
