17
b3lypvtz=-171054.44528737
C       3.47308428     -0.09144263      0.16829144
C       2.33147364      0.06918399     -0.16469361
C       0.93627095      0.25011210     -0.54658192
C      -0.04835556     -0.31527587      0.50542013
C      -1.49826340     -0.15426002      0.11700395
C      -2.25836997     -1.20877020     -0.16881788
C      -2.04172034      1.24911502      0.08567379
H       4.48502242     -0.22994673      0.45596664
H       0.75666126     -0.24135795     -1.50658732
H       0.74773286      1.31490507     -0.70353347
H       0.13844624      0.19462894      1.45520803
H       0.17781208     -1.37015673      0.66109575
H      -1.86554894     -2.21720650     -0.13384530
H      -3.30043933     -1.10037604     -0.44245531
H      -3.10160898      1.26067248     -0.16481215
H      -1.51818078      1.86947755     -0.64651565
H      -1.91305244      1.73650650      1.05658487
