13
b3lypvtz=-216151.6264223
C       1.96584502     -1.67557264     -0.14716658
C       1.25080827     -0.73318728      0.04529933
C       0.40694857      0.43264036      0.29267749
C       1.16434630      1.74866259      0.17322740
O      -0.67263539      0.47589711     -0.69085026
C      -1.82513551     -0.13204829     -0.36263026
O      -2.06671102     -0.70047917      0.66397641
H       2.59016312     -2.51712645     -0.31733450
H      -0.05091385      0.33597827      1.27743496
H       0.49465054      2.58160815      0.38436554
H       1.57167095      1.86455672     -0.82995412
H       1.98657429      1.76656142      0.88762001
H      -2.52931329     -0.01736278     -1.19684243
