14
b3lypvtz=-203677.29546038425
C       2.04248842      1.06634763     -0.30595145
C       0.73442563      1.27196643     -0.09560129
C      -0.33507587      0.30846863     -0.00243062
N      -0.01161137     -1.02635864      0.03538477
C      -0.75129716     -2.10689885      0.05173020
C      -1.70123437      0.70376767      0.07495060
O      -2.67249927     -0.05175413      0.13056030
H       2.47778355      0.08752638     -0.48032488
H       2.73730877      1.89250480     -0.32482427
H       0.39766103      2.29643705      0.02509181
H       0.98997897     -1.18459830      0.07774910
H      -0.24126201     -3.05367289      0.12697992
H      -1.82073775     -2.00475218      0.00743351
H      -1.84592856      1.80101643      0.08906987
