16
b3lypvtz=-227732.99674425
C       2.03679637      0.37069560      0.78210680
N       0.72470432     -0.24618231      0.61899174
C       0.13461581     -0.07251988     -0.67973533
C      -1.18341530     -0.77291632     -0.95333397
C      -1.17570844      0.70599236     -0.67274621
O      -1.64126994      1.07270356      0.59277835
O      -1.71893902     -1.62053035      0.01635216
H       2.40716028      0.17247900      1.78774517
H       1.95181213      1.45169071      0.66393333
H       2.78248256      0.01050198      0.06049890
H       0.73464835     -1.22469541      0.87820432
H       0.81130896      0.05577602     -1.52039328
H      -1.35735597     -1.11901886     -1.96469813
H      -1.40763725      1.42313114     -1.44858568
H      -0.90628337      0.84613181      1.19652900
H      -2.19291950     -1.05323908      0.64235283
