14
b3lypvtz=-227012.83388384
C      -3.16855058      0.22956095     -0.18178974
N      -1.91626354     -0.49991487     -0.23527587
C      -0.91350525     -0.01049006      0.35046549
C       0.40688314     -0.72684066      0.34402319
C       1.57550258      0.18508729      0.00108395
O       1.53314359      1.38142176      0.01088909
O       2.73455324     -0.45443920     -0.30416262
H      -3.93249419     -0.40755112      0.26813982
H      -3.10830340      1.16909130      0.38185994
H      -3.49649111      0.44611925     -1.20015760
H      -0.94226910      0.94450270      0.88703522
H       0.35076303     -1.57236150     -0.34377621
H       0.60699302     -1.13503875      1.34281790
H       2.60851958     -1.41064309     -0.29383655
