15
b3lypvtz=-214502.57110194
C      -3.09597153     -0.19217572     -0.00068827
C      -1.63003624     -0.27772959      0.25685828
N      -0.79693319      0.48227551     -0.32573723
C       0.57644201      0.29670529     -0.10453852
C       1.38496149      1.53448185      0.13228290
N       1.03224656     -0.89697766     -0.18353954
O       2.42958637     -0.93772040      0.02114159
H      -3.46080766     -1.14503875     -0.39477748
H      -3.31812168      0.59972885     -0.71250799
H      -3.63918419     -0.01215038      0.93088706
H      -1.29013830     -1.03382312      0.97230073
H       0.87915169      2.38912286     -0.31142872
H       2.38580109      1.42808882     -0.28006021
H       1.48729881      1.71791391      1.20507131
H       2.63565177     -1.85403748     -0.18672489
