16
b3lypvtz=-204468.89981004
C       1.93855074     -0.99856926     -0.26335404
C       1.20151602      0.25874420      0.11518804
N       1.48868218      1.43833452     -0.25756489
C      -0.02326447      0.06910379      0.99659434
C      -1.22428353     -0.26454667      0.10516336
C      -2.07611988      0.90220588     -0.32716333
O      -1.44117521     -1.40129902     -0.24688135
H       2.41177172     -1.43437010      0.62049320
H       2.70636468     -0.80092145     -1.01057593
H       1.24192838     -1.74663673     -0.64671845
H       2.30887743      1.43989226     -0.86529124
H      -0.19810247      0.98998695      1.54861573
H       0.12324906     -0.76381440      1.68365547
H      -2.80044390      0.58546570     -1.07329381
H      -1.44318836      1.70257922     -0.71551409
H      -2.60039539      1.30838211      0.54218299
