17
b3lypvtz=-171066.81363088
C       3.17257010     -0.29435581      0.00005808
C       1.74388528     -0.01663671      0.00005630
C       0.55797491      0.20124554      0.00005742
C      -0.83154351      0.53291072      0.00004998
C      -1.15441569      2.00935102      0.00005952
C      -1.79410494     -0.40193465      0.00003906
C      -1.59801936     -1.88279998      0.00003070
H       3.36603530     -1.36888117      0.00003142
H       3.65706383      0.13124369      0.88169169
H       3.65707305      0.13128908     -0.88154828
H      -0.72859710      2.50049308     -0.87749478
H      -2.23171961      2.17268500      0.00005230
H      -0.72861054      2.50047943      0.87762798
H      -2.82270252     -0.05485465      0.00003508
H      -2.06856138     -2.33840379     -0.87629358
H      -2.06857127     -2.33841477      0.87634396
H      -0.54303555     -2.15058304      0.00003516
