15
b3lypvtz=-191181.13631159
C       2.20788068     -0.46323251     -0.01974681
N       1.15428876     -0.12001417     -0.62091345
C       0.04624119      0.38878594      0.19682548
C      -1.19510030     -0.49010649     -0.05144319
N      -0.93590608     -1.85441199      0.40092418
C      -0.22419464      1.78361844     -0.15143233
C      -0.46196257      2.92662497     -0.42503008
H       2.34169195     -0.38379090      1.06494386
H       3.04150718     -0.85843152     -0.59641812
H       0.28808098      0.32726415      1.26720925
H      -2.01791173     -0.07867965      0.53380087
H      -1.46182146     -0.40384073     -1.11096135
H      -1.79691311     -2.38546051      0.43177695
H      -0.32040544     -2.32741911     -0.25005590
H      -0.66547543      3.93909408     -0.66947935
