19
b3lypvtz=-171818.60017635
C      -2.70090433      0.11727167     -0.17473381
C      -1.41506785     -0.70427832     -0.06871462
C      -0.26686531      0.06408641      0.57346033
C       0.39795600      1.26239679     -0.19275996
C       1.76443557      0.59570192     -0.01598046
C       1.76650111     -0.75528091     -0.66222736
C       1.11339269     -0.59917131      0.68089507
H      -3.04741448      0.43628446      0.81103436
H      -2.54863367      1.01595350     -0.77634712
H      -3.50427153     -0.45766973     -0.63817810
H      -1.60544983     -1.60757756      0.51998524
H      -1.11944192     -1.04736187     -1.06396504
H      -0.58105986      0.40946300      1.56120943
H       0.08237507      1.41091276     -1.22855905
H       0.29690794      2.20722152      0.33837756
H       2.68192220      1.10582315      0.24099788
H       1.17772161     -0.93470543     -1.55515272
H       2.71450965     -1.27711154     -0.64897360
H       1.46781995     -1.15252451      1.54001098
