15
b3lypvtz=-193584.67966846
C      -2.07577782      0.93661854     -0.67026175
C      -1.00432833      0.32813349     -0.18420964
C      -0.78502688     -1.02474259      0.49923033
C       0.66698833     -0.61081712      0.77366350
C       1.36790511     -0.29048228     -0.49479633
O       2.73405968      0.01295451     -0.46302795
C       0.40225563      0.74704487      0.04788968
H      -3.03665705      0.43941367     -0.70821091
H      -2.02987111      1.95511770     -1.03465467
H      -1.37940546     -1.11570982      1.40878214
H      -0.92432101     -1.92388176     -0.10554359
H       1.21138564     -0.79325110      1.69030844
H       1.13797329     -0.82300768     -1.41056421
H       2.95346550      0.41874391      0.38232535
H       0.76105447      1.74376567      0.26916961
