15
b3lypvtz=-191194.27523673
C       2.70622232      0.05929908      0.03268954
N       2.12348845     -1.04547593      0.27979664
C       0.79139838     -1.28743714     -0.04737514
C      -0.20404383     -0.39067433     -0.15965496
C      -1.71376347     -0.51079273     -0.27192502
C      -1.73648520      0.98612340      0.15512166
N      -0.27390315      0.99928804     -0.05348394
H       2.25671981      0.88754171     -0.52139373
H       3.73815596      0.18372204      0.34996457
H       0.52304737     -2.33469232     -0.09972051
H      -2.07456531     -0.68146332     -1.28555993
H      -2.19026157     -1.21420987      0.40660945
H      -2.03910626      1.12824583      1.19490633
H      -2.28219668      1.68020179     -0.48350199
H       0.37509318      1.54022376      0.50342706
