18
b3lypvtz=-181868.91504008
C       1.48545285      0.11581318      1.08270061
C       0.48817517      0.23494062     -0.07109957
N       1.07274734      0.99039946     -1.18421782
C      -0.35244640     -1.01953444     -0.49893052
C      -1.17298240     -0.86048706      0.81246685
C      -1.01282255      0.57515187      0.23652170
C      -1.37960825     -0.04374597     -1.14403204
H       1.77540081      1.11293131      1.42449306
H       2.39455093     -0.38190676      0.73497882
H       1.12150480     -0.43404046      1.94786194
H       1.92200936      0.53468660     -1.50105962
H       1.35093182      1.91266023     -0.86580917
H       0.03554003     -1.94619274     -0.92345513
H      -2.18402169     -1.26407435      0.77947432
H      -0.69619875     -1.09927550      1.75827328
H      -1.39239844      1.50257691      0.66693412
H      -2.39641264     -0.42586003     -1.22861830
H      -1.05952199      0.49585714     -2.02658254
