15
b3lypvtz=-214505.29253523
N      -2.65777112      0.62134277      0.40712782
C      -2.12469356     -0.32197640     -0.25895007
N      -0.81042704     -0.72626322     -0.32537352
C       0.27883826     -0.05997223      0.32729478
C       1.11762395      1.01110542     -0.41682028
O       2.34187394      0.32152078     -0.07208420
C       1.61106480     -0.82487069      0.41136301
H      -1.97590475      1.16597610      0.93334891
H      -2.77381446     -0.95002900     -0.86945286
H      -0.57779196     -1.38170193     -1.05326051
H      -0.05670478      0.28984128      1.30230267
H       0.94582927      1.02649516     -1.49769051
H       1.09762338      2.02949026     -0.02576037
H       1.67455291     -1.67138421     -0.28309318
H       1.94498817     -1.14508310      1.39910833
