17
b3lypvtz=-191955.13337919
C      -2.01439793      1.34209290     -0.00494870
C      -1.22244803      0.29824262     -0.17546770
C      -1.39588876     -1.20525380     -0.12585084
N      -0.02864334     -1.35490205     -0.70675250
C       0.23988067      0.10801646     -0.53793881
C       1.24147897      0.49404589      0.55797710
N       2.63173588      0.11309721      0.31534876
H      -3.05895972      1.22404002      0.25594354
H      -1.65133823      2.35535186     -0.12451613
H      -2.18523129     -1.62595590     -0.75305250
H      -1.51292014     -1.60092032      0.88891014
H       0.58648854     -1.94914256     -0.16302545
H       0.54987095      0.57605004     -1.47916973
H       1.20242814      1.57831650      0.69259784
H       0.92825298      0.05234136      1.50773391
H       2.95703254      0.48825894     -0.56854112
H       2.73265878     -0.89367917      0.26043019
