19
b3lypvtz=-218454.74009445
C      -2.79655009     -0.76349549     -0.24688011
C      -1.73325679      0.10002287      0.39955835
O      -0.48229384     -0.17658457     -0.23075540
C       0.60496830      0.56065886      0.27010410
O       0.48867152      1.94052123     -0.02648805
C       1.88050711     -0.04510606     -0.29856867
C       2.12829795     -1.48542270      0.14478316
H      -3.76654440     -0.57753571      0.21697896
H      -2.87686949     -0.54169906     -1.31149976
H      -2.55834269     -1.82173027     -0.13548397
H      -1.97375968      1.16124404      0.29452450
H      -1.65443249     -0.11874981      1.47225632
H       0.60953428      0.52247578      1.36652493
H       0.53628316      2.03982404     -0.98484548
H       1.81577846      0.00535601     -1.39044709
H       2.70895611      0.59709074      0.00569871
H       2.20310227     -1.55465902      1.23241477
H       1.31789150     -2.13740935     -0.17818989
H       3.06067183     -1.86617153     -0.27382538
