12
b3lypvtz=-254551.87840357
C      -0.51781195     -1.25418814      0.06555904
C       0.01352679      0.13057872      0.45984328
C      -1.33602689      0.61307564     -0.08478279
O      -1.89779847      1.64745628     -0.23677062
O      -1.77135141     -0.64408910     -0.40823743
C       1.22975315      0.66781447     -0.25850469
F       2.36936988      0.02293952      0.21897501
H      -0.00077620     -1.74890324     -0.75385511
H      -0.71500155     -1.94820498      0.87822363
H       0.11013674      0.28818770      1.53368040
H       1.34304619      1.73764270     -0.07990944
H       1.17293372      0.48769044     -1.33422127
