15
b3lypvtz=-214533.09185126
C      -2.41959046     -0.68274766      0.51972443
C      -1.73072856      0.24826498     -0.48659335
C      -0.27244904      0.47448672     -0.17597547
N       0.28972422      1.54713012      0.19317623
O       0.41755355     -0.69286153     -0.34090630
C       1.78460252     -0.84641634     -0.10110085
N       2.64090823     -0.02188184      0.28123581
H      -1.94550424     -1.66300233      0.53139331
H      -2.37573915     -0.27052566      1.52870709
H      -3.46858869     -0.81538222      0.25469537
H      -1.80169481     -0.18059078     -1.48886884
H      -2.22821297      1.21831773     -0.50914573
H      -0.38761910      2.30127612      0.25710214
H       2.02186565     -1.88434148     -0.31508693
H       2.23158784      0.90008814      0.42848110
