14
b3lypvtz=-203668.6644629
C       1.37135191     -0.14122151      0.49941803
C       0.67512383      1.19884914      0.15008877
N      -0.18378563      0.54257581     -0.89474907
C       0.38427501     -0.80756222     -0.48395242
C      -0.98596675     -1.18496285      0.09267909
O      -1.42803456     -2.13387159      0.66724360
C      -1.53815338      0.17040557     -0.37970109
H       2.40584742     -0.20207198      0.16939740
H       1.31182441     -0.47643410      1.53325828
H       1.32443689      1.96081284     -0.27843728
H       0.10373791      1.64948259      0.96501923
H       0.78183059     -1.47020261     -1.25307569
H      -2.27206878      0.07379319     -1.18299833
H      -1.95041889      0.82040772      0.39580949
