11
b3lypvtz=-233901.18357259
C       0.36415175     -0.45094841      0.00625976
C      -0.50265936      0.61542196     -0.00951940
N      -1.72780382      0.06785608      0.05492718
N      -1.63941854     -1.29442861      0.11079360
N      -0.37965007     -1.59069101      0.08034731
O      -0.29364944      1.93937596     -0.07255052
N       1.76981182     -0.33551270     -0.04655459
H      -2.62498641      0.52251055      0.06931488
H       0.66608547      2.06341979     -0.10963217
H       2.15634839     -0.80417368     -0.85727244
H       2.21177022     -0.73282993      0.77388639
