12
b3lypvtz=-223794.52174039
C      -1.74232878     -0.96890268     -0.76314087
N      -0.82221411     -0.12151661     -0.95398491
C       0.22253436     -0.00080967     -0.02237311
C       0.71187240      1.37812741      0.22370660
N       0.30054261      2.41127144     -0.38646516
N       0.70987661     -1.07571483      0.48251100
O       1.78860925     -0.83972611      1.33669973
H      -1.79624332     -1.59794194      0.12790012
H      -2.51373979     -1.08307918     -1.51976246
H       1.47486406      1.48195441      0.98811074
H      -0.40316534      2.14689139     -1.08139938
H       2.06929205     -1.73075364      1.56819770
