13
b3lypvtz=-213773.45056889
C      -1.95653744      0.43971043     -0.41188104
C      -0.73905813     -0.21614564      0.17101418
N      -0.65268727     -1.17381260      0.99151060
O       0.38662537      0.37421714     -0.31351737
C       1.61718922     -0.16632745      0.17083705
C       2.71074433      0.58105365     -0.44501761
N       3.59820019      1.14520682     -0.90869650
H      -1.96231391      1.50191057     -0.16476504
H      -1.93853818      0.35985248     -1.49939084
H      -2.86397488     -0.02319841     -0.03191004
H      -1.56898311     -1.51242200      1.26470333
H       1.69758987     -1.22524306     -0.08060100
H       1.67174394     -0.08480192      1.25771429
