11
b3lypvtz=-259663.5621065
N       1.24710188      1.27131541     -0.03729807
C       1.10169342     -0.05170995      0.00872666
O       2.26231409     -0.72181320      0.03947974
N      -0.00052863     -0.74711768      0.02667565
C      -1.19437342     -0.08425360     -0.00387096
O      -2.22637462     -0.95577384      0.02003170
O      -1.39962734      1.12562226     -0.04725093
H       2.16366008      1.68028966     -0.04640248
H       2.02470636     -1.65976190      0.07137611
H      -3.02823926     -0.41659631     -0.00381327
H       0.39201744      1.81442115     -0.06160513
