10
b3lypvtz=-279683.46395123
C       0.79896573     -0.04907257     -0.40094896
C       1.94861635      0.59587800     -0.49040596
F       3.07507236     -0.06784046     -0.79647410
O      -0.33387733      0.68209419     -0.08246883
C      -1.49179216      0.02535685      0.00620100
N      -1.67424969     -1.19708820     -0.16820442
F      -2.43112954      0.92416479      0.31912320
H       0.66538685     -1.10775279     -0.55642484
H       2.08778991      1.65595472     -0.33570212
H      -2.64478248     -1.46169455     -0.04583725
