18
b3lypvtz=-181890.44145138
C      -2.14211612     -1.17480716      0.09651804
C      -0.86576554     -1.00859085     -0.22615962
C      -0.06463525      0.22078484      0.04470129
C       1.31624514     -0.00542267      0.64778369
C       2.28266823     -0.79670833     -0.23749772
C      -0.24567178      1.41665009     -0.82993027
N      -0.83987071      1.37761981      0.51537400
H      -2.69450095     -0.39112265      0.59729693
H      -2.66317341     -2.09340675     -0.13849392
H      -0.33584105     -1.80868528     -0.73271272
H       1.75441731      0.97320242      0.86647866
H       1.19971742     -0.51548919      1.60885304
H       3.26424497     -0.86604448      0.23359894
H       2.41078791     -0.31609070     -1.20909432
H       1.93373204     -1.81490545     -0.41140499
H      -0.96080723      1.38111010     -1.64192510
H       0.61345252      2.05621914     -1.00200269
H      -0.28295848      1.92770511      1.16125275
