16
b3lypvtz=-227766.04758666
C      -0.14102438     -1.67834383      0.28685739
C       0.17284369     -0.29264602     -0.27485505
C      -1.12073487      0.51097056     -0.45690121
O      -0.84839840      1.63490340     -1.31016590
C       1.21305388      0.47665971      0.54703935
N       1.85629224      0.07046575      1.55734299
O       1.47038581      1.72671553      0.09607962
H      -0.83995507     -2.20383084     -0.36483233
H      -0.58894270     -1.61725850      1.28057164
H       0.75978875     -2.28661895      0.35904111
H       0.59835121     -0.41236099     -1.27776579
H      -1.87995970     -0.12469274     -0.92080381
H      -1.49795712      0.84788272      0.51385808
H      -1.57067146      2.26673864     -1.24937964
H       1.59767418     -0.87905383      1.80071149
H       0.81935395      1.96046940     -0.58679793
