16
b3lypvtz=-202059.25799607
C      -2.30059507     -1.11475715      0.11407461
N      -0.89194736     -0.79488721     -0.03550600
C      -0.35238777      0.46037214     -0.04648250
C      -1.31171125      1.61709132     -0.00498424
N       0.91297708      0.70676899     -0.08438384
C       1.82953521     -0.31046400     -0.30544673
N       2.96686102     -0.44053543      0.24800940
H      -2.67899213     -0.90248965      1.11866816
H      -2.90891297     -0.56864217     -0.60580892
H      -2.43539041     -2.17713958     -0.08016398
H      -0.24647685     -1.55389416      0.10062797
H      -1.95936698      1.61844545     -0.88451020
H      -1.95619608      1.57513392      0.87533693
H      -0.73885027      2.53837277      0.01228926
H       1.56998686     -1.03492006     -1.08841764
H       3.09203200      0.30451381      0.93774273
