15
b3lypvtz=-170295.12239076
C      -3.31680104     -0.58719031      0.16298712
C      -2.61158906      0.52386246     -0.06102784
C      -1.16153682      0.66279579      0.01354359
C      -0.27051120     -0.32523964     -0.18576094
C       1.13261169     -0.17640553     -0.08408190
C       2.33333067     -0.09107632     -0.00809448
C       3.77980394      0.02329999      0.08760464
H      -4.39362264     -0.59504569      0.06481661
H      -2.84710457     -1.51506248      0.46445875
H      -3.15215338      1.43438615     -0.30160029
H      -0.78357407      1.65703968      0.22527627
H      -0.62937772     -1.31305314     -0.45914911
H       4.26988747     -0.89911704     -0.23006658
H       4.15245790      0.83415702     -0.54238155
H       4.09188084      0.23175005      1.11358971
