17
b3lypvtz=-217696.21108518
C      -2.35725001     -0.45650963     -0.18588011
C      -1.09858049      0.21019799      0.35706628
C      -0.34910491      1.08032460     -0.65445233
O       0.96917187      1.20253402     -0.11383802
C       1.32441819     -0.05171343      0.44192392
O       2.01704806     -0.86129040     -0.48952121
C       0.01148269     -0.76419182      0.80385923
H      -3.09000643      0.28423676     -0.51287991
H      -2.12333560     -1.09718617     -1.03905224
H      -2.83524744     -1.07662285      0.57430646
H      -1.36813814      0.84667906      1.20415199
H      -0.75668330      2.08408503     -0.76650858
H      -0.31707120      0.59862234     -1.63943991
H       1.96775257      0.16842090      1.29734778
H       2.81285767     -0.38734607     -0.75491136
H      -0.03721333     -1.70022450      0.24688675
H      -0.04357521     -1.00060984      1.86547227
