16
b3lypvtz=-181143.28073632
C      -3.29368366      0.19540770      0.00001332
C      -2.12841921     -0.45284291     -0.00000776
N      -0.91419504      0.22184675     -0.00002503
C       0.16232870     -0.46505356     -0.00004558
C       1.51108995      0.12405018     -0.00002471
C       1.69088510      1.44783142     -0.00001988
C       2.65301853     -0.85733005     -0.00000377
H      -3.32095103      1.27633655      0.00001786
H      -4.23042251     -0.34290042      0.00002179
H      -2.10247778     -1.54534246     -0.00001794
H       0.12245515     -1.56364364     -0.00001212
H       0.84288807      2.11807632     -0.00004001
H       2.68223268      1.88101607     -0.00000213
H       2.61322262     -1.50839456     -0.87764373
H       2.61318199     -1.50840420      0.87762730
H       3.61464143     -0.34709018      0.00002140
