15
b3lypvtz=-216913.38957775
C      -2.49386285      0.71772283      0.03547704
C      -1.61223897     -0.43964704     -0.34589825
O      -0.83557118     -1.05759459      0.68977918
C      -0.14446878     -0.40247616     -0.38438283
C       0.66917266      0.81363093     -0.02654102
C       2.14973500      0.54820860      0.13038716
O       2.69852691     -0.49159523     -0.12311501
H      -3.37009509      0.35757473      0.57764090
H      -2.84679599      1.23432415     -0.86006458
H      -1.97894151      1.43672688      0.66997168
H      -2.08836900     -1.16185970     -1.00648092
H       0.35976966     -1.08878012     -1.05739305
H       0.57584458      1.59301000     -0.79494744
H       0.31057396      1.26652999      0.90084901
H       2.73311061      1.41968672      0.49472413
