12
b3lypvtz=-223825.99339246
N      -2.75575288     -0.60617693      0.35080610
N      -2.28782866      0.37557900     -0.24839938
C      -0.91564493      0.62453850     -0.04171394
C       0.02796669     -0.31530478     -0.09045947
C       1.46642541      0.05386390      0.01077863
N       2.32103669     -1.00989865      0.01469345
O       1.85701851      1.20580658      0.09053365
H      -3.73700124     -0.69290675      0.04934836
H      -0.65321869      1.67216872      0.03202987
H      -0.25654398     -1.35234761     -0.21866791
H       2.00070546     -1.95873902     -0.04615221
H       3.30681262     -0.83060195      0.09688284
