15
b3lypvtz=-216915.04194825
C      -2.41423479     -0.47112759      0.61592507
C      -1.44441828      0.25703865     -0.28054624
C      -0.32336518      1.10565460      0.35179592
C       0.62389271      0.24581681     -0.51935031
C       1.73324172     -0.46119262      0.22067460
O       2.84120114     -0.01011449      0.34870801
O      -0.45818816     -0.63126332     -0.88664488
H      -2.99160907     -1.19639411      0.04052635
H      -1.88835261     -1.00265655      1.41019192
H      -3.11282367      0.23520645      1.07022102
H      -1.98268107      0.79498302     -1.06756312
H      -0.20665368      0.94222336      1.42280064
H      -0.32394288      2.17251542      0.14620962
H       1.04299183      0.77679104     -1.37854861
H       1.43424899     -1.43115267      0.67082600
