15
b3lypvtz=-191206.22090241
C      -3.43907903      0.05870627     -0.17118482
C      -2.29630599     -0.03265161      0.18256266
C      -0.89920780     -0.13498989      0.58451985
C       0.07616414      0.24980008     -0.55247053
C       1.52445458      0.11769691     -0.12374346
N       2.28774967      1.07129889      0.24365261
N       1.98268250     -1.18353200     -0.05921022
H      -4.45315468      0.13653796     -0.47420995
H      -0.71784164      0.51379066      1.44531311
H      -0.68698591     -1.15341540      0.91720593
H      -0.12292334     -0.38538886     -1.41930566
H      -0.11182987      1.27760258     -0.85942050
H       1.79801451      1.96058192      0.21139020
H       2.97304006     -1.27312081      0.10655832
H       1.59675380     -1.85190268     -0.70423551
