18
b3lypvtz=-181885.12193434
C       2.15014476      0.44514374     -0.02518531
C       0.73772780      0.03967072     -0.39467575
C       0.29119116     -1.35175140      0.06494170
C      -1.16569485     -1.54913643     -0.25461255
C      -0.77117950     -0.66547408      0.89976201
N      -0.29425277      0.65405341      0.49818754
C      -1.24080945      1.59901065     -0.06216788
H       2.29676343      1.51397125     -0.18977809
H       2.33950291      0.23496487      1.02812222
H       2.88019823     -0.09933557     -0.62926443
H       0.55204062      0.22841514     -1.45981127
H       0.95515499     -2.15746328      0.34169266
H      -1.57851246     -2.50980810      0.02554212
H      -1.58526820     -1.12714435     -1.16095022
H      -1.09312055     -0.85426282      1.91598504
H      -1.79384945      1.21731571     -0.93444238
H      -1.96735403      1.87751572      0.70311450
H      -0.71268263      2.50431482     -0.36645989
