13
b3lypvtz=-192806.46827233
O      -0.16371304      0.27428575      1.65089784
C      -1.13201826      0.32410408      0.63716074
C      -0.55273550      0.80061943     -0.67649747
C      -0.85487505     -0.67908079     -0.46060343
C       0.64611269     -0.95711683     -0.26557875
C       0.97843402     -0.06681928      0.91136217
C       0.94825026      0.52258090     -0.48145291
H      -2.12599507      0.57570164      0.97103027
H      -1.00793312      1.52483766     -1.33319547
H      -1.58943832     -1.32284039     -0.91767323
H       1.19522852     -1.83864636     -0.55592650
H       1.88182525     -0.16650857      1.49164168
H       1.77675762      1.00898275     -0.97126493
