16
b3lypvtz=-204451.49154262
C       0.61350579     -1.69306752     -0.60773912
C       0.80216297     -0.50192501     -0.04022564
O       1.94017877     -0.17890242      0.66501828
C      -0.12399401      0.65353024     -0.11103608
N       0.53178277      1.86402149     -0.40075063
C      -1.45597721      0.57037885      0.03851715
C      -2.29355146     -0.63614011      0.33199988
H       1.34058534     -2.48922895     -0.50331249
H      -0.26187314     -1.88987673     -1.20317625
H       2.56545143     -0.90891551      0.60438832
H      -0.00125595      2.68307948     -0.15038969
H       1.46530153      1.90702503     -0.02093712
H      -2.00453206      1.50396819     -0.05683135
H      -2.82022970     -0.99940918     -0.55772184
H      -1.70421801     -1.46407657      0.72224633
H      -3.06399905     -0.39062329      1.06716127
