13
b3lypvtz=-237097.84113594
C      -2.16940763     -0.06680907     -0.12858818
C      -0.87059693      0.23144382     -0.03225689
O      -0.37112542      1.50030112     -0.16781417
N       0.11639637     -0.69147151      0.28497510
C       1.45226645     -0.80980393     -0.12772780
N       1.97520667      0.22483002     -0.84392393
O       2.06824752     -1.82272315      0.14587932
H      -2.50790951     -1.08902834     -0.07503331
H      -2.91155093      0.71004679     -0.23765790
H      -1.06727931      2.06251695     -0.52327320
H      -0.20966683     -1.55384652      0.68932363
H       1.52602436      1.12375959     -0.82774386
H       2.96929518      0.18058423     -0.98255881
