12
b3lypvtz=-254536.77100631
C       1.01345062     -0.02818184      0.35550781
C       1.72711069      1.09063320      0.26188361
F       3.01392586      1.13340838      0.66621684
C      -0.35534095     -0.16196639     -0.08299316
C      -1.11910390     -1.23892840      0.15585658
O      -2.39906748     -1.36580121     -0.26538381
O      -0.96322960      0.89553427     -0.75530503
H       1.48616976     -0.90564822      0.77965721
H       1.37947943      2.04557258     -0.10495651
H      -0.76495471     -2.08285931      0.72795400
H      -2.62532749     -0.55804503     -0.74855993
H      -0.39311223      1.17628199     -1.48099142
