15
b3lypvtz=-212071.03622916294
C       3.55456140     -0.82417782      0.76886437
N       2.27512476     -0.81741243      0.75175365
N       1.69194438     -0.08183667     -0.23042217
N       0.38623645     -0.19744670     -0.06070467
C      -0.56582496      0.35250721     -0.76339119
C      -1.99979502      0.09151501     -0.45797431
N      -2.72045946      1.35034367     -0.24555087
H       4.15126092     -0.27195759      0.04590552
H       4.04461363     -1.40551254      1.53767943
H       0.13258756     -0.80923518      0.72320167
H      -0.27286982      1.00679707     -1.57022376
H      -2.06351604     -0.62047916      0.37985783
H      -2.47244449     -0.40132288     -1.31467288
H      -3.71782951      1.18662656     -0.17946911
H      -2.42358980      1.79433338      0.61514648
