18
b3lypvtz=-181901.45354611
C       2.57009129      1.28708406     -0.18463336
C       2.11221885      0.19836109      0.42186440
C       1.44573592     -0.96021630     -0.26025108
C      -0.00386004     -1.16486433      0.19588733
N      -0.83876846     -0.04125954     -0.19270938
C      -2.21443186     -0.13521186     -0.09885409
C      -3.07651666      0.86703024      0.09589082
H       2.49882987      1.40938914     -1.25921053
H       3.03960995      2.09004355      0.36846118
H       2.20692301      0.11931696      1.50254683
H       1.46408714     -0.81955950     -1.34287555
H       1.99879715     -1.87796398     -0.03604086
H      -0.02040188     -1.34216110      1.28213359
H      -0.40670662     -2.06354207     -0.27620593
H      -0.45625683      0.85815101      0.06289135
H      -2.58658299     -1.14406724     -0.24848340
H      -2.74754261      1.88618856      0.25631245
H      -4.13937323      0.68343932      0.07181420
