15
b3lypvtz=-193603.24636857
C      -1.58779610      0.20233718      0.07525256
C      -0.79586749      1.26950157      0.01990942
C       0.68695777      0.99279498     -0.09239129
C       1.10562926     -0.01765646      0.99809601
C       0.56699072     -1.02125682     -0.04083505
C      -0.95684335     -1.17202840      0.02966356
O       0.88453184     -0.06021165     -1.09594686
H      -2.66604683      0.28512896      0.13840246
H      -1.16972845      2.28466296      0.05250149
H       1.30066825      1.86907052     -0.28928500
H       0.62632959      0.04831068      1.97313778
H       2.18650533     -0.09269273      1.09601682
H       1.08570868     -1.96942194     -0.17883260
H      -1.31355570     -1.72547711     -0.84445017
H      -1.24183352     -1.76091774      0.90822086
