15
b3lypvtz=-191214.55220764
C       2.38356331     -0.36317638      0.43885361
N       1.44094495     -0.38365053     -0.39981514
C       0.29283766      0.41442900     -0.19116132
N       0.30082120      1.69064653     -0.22230109
C      -0.98903760     -0.31381385     -0.01476311
C      -1.04156738     -1.64403527     -0.11192570
C      -2.19960365      0.53033470      0.26596664
H       2.34839048      0.21615424      1.36715090
H       3.28360558     -0.94141501      0.24308052
H       1.24415663      2.04584462     -0.37399613
H      -0.16521667     -2.23342407     -0.33845207
H      -1.97689911     -2.17282808      0.01665525
H      -2.06183013      1.12467189      1.17049831
H      -3.08320834     -0.09546745      0.38400264
H      -2.36997695      1.24199266     -0.54251833
