13
b3lypvtz=-237086.1530378
C      -2.31134969     -0.88090200      0.00027415
C      -1.17617816      0.10108882      0.00007030
N      -1.22467328      1.36246903      0.00007836
O       0.00388120     -0.59294535     -0.00011542
C       1.24790168      0.00316748      0.00004214
N       1.58777700      1.20885691      0.00015792
O       2.12753794     -1.01646295      0.00005533
H      -2.24675905     -1.52455705     -0.87780315
H      -2.24686146     -1.52403645      0.87874496
H      -3.26826769     -0.36439899      0.00007230
H      -2.18581256      1.68786678      0.00024265
H       0.77638983      1.81950324      0.00010424
H       3.00084523     -0.60313248      0.00012623
