14
b3lypvtz=-226976.54390655
N      -2.76752499     -0.19458731      0.76555568
C      -2.12057733      0.63807932     -0.14431611
C      -0.91327768      0.42542016     -0.66715554
O      -0.25982365     -0.77386086     -0.44473852
C       1.08326612     -0.74225243     -0.17530942
C       1.79731421      0.32810464      0.16166488
O       3.16606670      0.22324513      0.30401024
H      -3.77166097     -0.20742499      0.68425926
H      -2.38347935     -1.12677531      0.80895341
H      -2.64022867      1.55081300     -0.40097250
H      -0.41424254      1.12959755     -1.31850300
H       1.53792635     -1.71735341     -0.27645311
H       1.35866325      1.30853861      0.29482426
H       3.46460455      0.87772490      0.94094047
