16
b3lypvtz=-181142.58194177
C      -0.73000718      1.48813965     -0.07247791
C      -1.57671911      0.46176717      0.06310033
C      -1.24238788     -0.99607876      0.18340789
N      -0.00001087     -1.39285682     -0.46800805
C       1.24238732     -0.99609656      0.18341092
C       1.57671258      0.46173022      0.06311290
C       0.73002829      1.48812194     -0.07246938
H      -1.17506169      2.47448158     -0.15048725
H      -2.63701841      0.68830595      0.10400958
H      -1.27120673     -1.27130036      1.25449304
H      -2.04623880     -1.56602982     -0.28945125
H      -0.00004283     -2.39621926     -0.58845245
H       1.27119889     -1.27137468      1.25448019
H       2.04621264     -1.56607209     -0.28950172
H       2.63701939      0.68821241      0.10405141
H       1.17511840      2.47444641     -0.15046624
