14
b3lypvtz=-229596.95157575
C       3.13966806     -0.33958070      0.00399091
C       1.76435815      0.23855152      0.05562112
N       0.72986619     -0.49306028     -0.06992030
C      -0.54799372      0.06212092     -0.02689951
N      -0.73718680      1.44989584      0.06201539
C      -1.56235741     -0.81219163     -0.00857015
F      -2.84378616     -0.37280737      0.02821939
H       3.67341041     -0.13948928      0.93769068
H       3.09720757     -1.41387666     -0.16256375
H       3.72462000      0.12674190     -0.79418602
H       1.69486384      1.31641256      0.23156030
H      -0.22058609      1.96792552     -0.63688141
H      -1.71478213      1.70250754      0.02588775
H      -1.45126491     -1.88256288      0.01962759
