16
b3lypvtz=-204436.76474868
O      -1.51920854     -1.51400138      0.82148797
C      -0.63294466     -0.98895375     -0.16876354
C      -1.01421284      0.43194142     -0.62871150
C      -0.18457951      1.35484339      0.29069165
N       1.00986690      0.60437695      0.73379807
C       1.74516073     -0.01127963     -0.37497165
C       0.76586637     -0.81731341      0.39112099
H      -1.43292738     -0.98746582      1.62357096
H      -0.67606421     -1.70842214     -0.98608702
H      -2.08717733      0.58838672     -0.53446171
H      -0.75535472      0.57601078     -1.67797907
H       0.11677217      2.28393684     -0.19400677
H      -0.74643334      1.62319666      1.18776603
H       1.50089805      0.27639486     -1.39149237
H       2.80299253     -0.14973181     -0.19196551
H       1.10714576     -1.56191970      1.09980348
