12
b3lypvtz=-228832.46762708
C       2.41308860     -0.39519003      0.32333183
N       1.33040889     -0.55575126     -0.30892393
C       0.26978480      0.35225355     -0.13260633
C       0.39768950      1.68107058     -0.20108236
C      -1.04625627     -0.31571799      0.01013838
N      -1.33000382     -1.52987032     -0.07337336
F      -2.04026080      0.55804142      0.26451236
H       2.56360364      0.40154680      1.05826101
H       3.23911302     -1.07610278      0.13743555
H      -0.46590044      2.32318698     -0.13063469
H       1.36101901      2.13929371     -0.37510903
H      -0.48833913     -2.06357665     -0.28026244
