15
b3lypvtz=-240263.39996982
C       3.06142253      0.25531390     -0.09369879
C       1.63565934     -0.04114440     -0.55934880
C       0.75104713     -0.48022737      0.59517281
O      -0.57452002     -0.84960383      0.14284663
C      -1.46204798      0.13725544      0.04732409
O      -1.28877886      1.29989068      0.31397445
O      -2.62128490     -0.37966168     -0.40181856
H       3.68709935      0.56288692     -0.93161437
H       3.52451156     -0.62407585      0.35919590
H       3.07942975      1.05915394      0.64474870
H       1.20043147      0.84817268     -1.01872648
H       1.64231510     -0.82791130     -1.31720998
H       1.13482704     -1.38527310      1.06390343
H       0.66097287      0.30495573      1.34462305
H      -3.24107538      0.35909624     -0.45529809
