14
b3lypvtz=-180366.9555332655
C      -1.50141448     -0.39882356     -0.05701868
C      -0.16989166     -0.54543716      0.70397459
C       0.97286243     -1.25177597     -0.00745722
C       1.64683637     -0.13438132     -0.28182590
C       0.60794545      0.77977484      0.36646340
C      -0.33866946      1.44877718     -0.59278177
N      -1.42765430      0.84739225     -0.84593992
H      -1.69947031     -1.23211616     -0.73598731
H      -2.36047348     -0.32655158      0.61378705
H      -0.28688617     -0.77762317      1.76221207
H       1.14938362     -2.29699543     -0.22705512
H       2.57151119      0.07641041     -0.80246787
H       0.94736523      1.41750256      1.18517693
H      -0.11144444      2.39384711     -1.08108027
