13
b3lypvtz=-216140.2688836
O       3.48049455      1.42509794     -0.84914195
C       3.10600098      0.35304579     -0.43175939
C       1.73424460     -0.07986252     -0.41041963
C       0.60039873     -0.48638973     -0.36370777
C      -0.77985034     -0.94501406     -0.34502719
C      -1.80064908      0.18988687     -0.25678066
O      -1.68477632      0.77703689      1.02978150
H       3.82346192     -0.38442934     -0.02734952
H      -0.93375023     -1.62189004      0.49958210
H      -0.96927977     -1.52412969     -1.25397547
H      -2.80160911     -0.23030759     -0.41011148
H      -1.60783877      0.91874676     -1.04972378
H      -2.16694717      1.60820872      1.04203323
