16
b3lypvtz=-204442.12858043
C       1.43844858      0.69416000      0.15241421
C       1.49023234     -0.59455703     -0.18496365
O       0.44433024     -1.46087532     -0.32158414
C      -0.69566478     -1.19619247      0.50559670
C      -1.61659210     -0.11190723     -0.05428749
N      -0.95865891      1.11688487     -0.48815082
C       0.18963125      1.53965877      0.31040541
H       2.39184531      1.20003887      0.24925992
H       2.43142874     -1.08740914     -0.39610935
H      -0.33825151     -0.92694854      1.50352410
H      -1.23574833     -2.14114056      0.58329836
H      -2.17243042     -0.50485339     -0.90708482
H      -2.35605348      0.11658174      0.72359650
H      -0.66539901      1.01792123     -1.45107825
H      -0.12400503      1.60446498      1.35773062
H       0.43821810      2.56364322      0.02052872
