18
b3lypvtz=-205193.38220721
C      -2.09235617     -0.10410441      0.43603586
C      -0.88927242     -0.39307951     -0.43010948
C       0.47773155     -0.54833944      0.13800816
C       1.49356632     -1.51049084     -0.42139956
O       2.79421493     -0.93595492     -0.47232074
N       0.15893970      0.59684761     -0.71459636
C       0.09459705      1.91443153     -0.09608718
H      -2.82383715      0.50592402     -0.09896717
H      -1.83448847      0.40839051      1.36110195
H      -2.58245107     -1.04157783      0.70572986
H      -1.12474966     -0.99297111     -1.30490029
H       0.57839687     -0.33893854      1.20131337
H       1.17374557     -1.83967270     -1.41692242
H       1.57541744     -2.39338052      0.21505175
H       2.72717265     -0.15486504     -1.03301134
H      -0.57021224      2.55577485     -0.67692702
H      -0.24756085      1.91459077      0.94550004
H       1.09114595      2.35731555     -0.11829941
