16
b3lypvtz=-181110.25907309
C       1.56157633      0.58972303      0.05250532
C       1.45621041     -0.74911018     -0.08688392
N       0.23825619     -1.47913055     -0.13112088
C      -0.75925516     -0.59960168      0.40884282
C      -2.06753236      0.00880692     -0.04225533
C      -0.74748063      0.66021240     -0.39432224
C       0.36311993      1.55342683      0.11628322
H       2.55877050      1.01129366      0.03270353
H       2.34806115     -1.35503249     -0.18829022
H       0.30913666     -2.40365431      0.27285468
H      -0.60632837     -0.40004251      1.46929273
H      -2.61550382     -0.37252395     -0.89359297
H      -2.69364425      0.35261215      0.77166153
H      -0.53710681      0.41264044     -1.42999776
H       0.54319347      2.42339916     -0.52205744
H       0.19487075      1.93139207      1.12839892
