11
b3lypvtz=-210615.29734454
C       0.87652488      0.29553146      0.19242196
N       0.03732341     -0.67898320      0.14688218
C      -1.31541707     -0.44977344      0.35669027
N      -2.21952677     -1.34421475      0.33696168
C      -1.75043711      0.92091871      0.62109100
N      -1.99739689      2.02775107      0.82053283
N       2.18854950      0.10223964     -0.00740409
H       0.59533932      1.33172050      0.39259814
H      -1.78284090     -2.24710701      0.14318730
H       2.83668635      0.86643884      0.02906621
H       2.53119526     -0.82452183     -0.19884881
