17
b3lypvtz=-171056.20883999
C       2.31364628     -0.75081930      0.42063385
C       1.24482380     -0.73042866     -0.36603584
C      -0.00000165      0.07042946     -0.17731430
C      -1.24485344     -0.73038485     -0.36605071
C      -2.31365392     -0.75078970      0.42064806
C       0.00001161      1.26852772      0.72761311
C       0.00002635      1.48510291     -0.75935136
H       3.17262035     -1.36185103      0.17741368
H       2.37438888     -0.16842599      1.33101137
H       1.24206895     -1.35690540     -1.25503804
H      -1.24213781     -1.35681382     -1.25508688
H      -2.37435295     -0.16844277      1.33105826
H      -3.17265170     -1.36178532      0.17742066
H      -0.90550745      1.49670565      1.27018969
H       0.90552804      1.49667714      1.27020606
H       0.91394288      1.82680679     -1.22535228
H      -0.91387121      1.82684018     -1.22536532
