15
b3lypvtz=-214556.4742536
C       2.01570749      0.09156175      0.13540989
N       0.57456226      0.10078286      0.21210210
C      -0.21914617     -1.06833687     -0.12209786
C      -1.65249434     -0.52897874      0.01158446
N      -1.45113648      0.88079785     -0.29425049
C      -0.14682740      1.26206819     -0.00242556
O       0.27725137      2.39856719      0.04681367
H       2.36848300      1.10413785      0.31739835
H       2.43659737     -0.57526574      0.89028514
H       2.36982471     -0.23351978     -0.85073833
H      -0.01655800     -1.40617938     -1.14770809
H      -0.02139250     -1.89972448      0.55557442
H      -2.33945657     -1.00438016     -0.68738100
H      -2.02805577     -0.68049094      1.02968521
H      -2.16745897      1.55896041     -0.09435191
