17
b3lypvtz=-191978.94979846
N      -2.02425935     -0.11797479     -0.66915360
C      -1.09536467      0.12446432      0.45097989
C      -0.20910791      1.33590155      0.26128711
C       1.08392700      1.24310169     -0.03496782
C       1.77731970     -0.07486828     -0.22419690
N       0.80272383     -1.15007444     -0.37576685
C      -0.22319887     -1.11336202      0.66570295
H      -2.57263907      0.71511462     -0.85445674
H      -1.46902169     -0.28765248     -1.50229872
H      -1.70861808      0.27009839      1.34497166
H      -0.67356971      2.31172388      0.36251778
H       1.68994719      2.13428858     -0.15322163
H       2.46741596     -0.23571095      0.62538089
H       2.40085279     -0.03456818     -1.12172714
H       1.26460733     -2.04884559     -0.39668089
H      -0.84264874     -2.00581665      0.58509729
H       0.20558528     -1.08018465      1.68043574
