13
b3lypvtz=-237058.49234489
O      -2.16034490      2.10982165     -1.60267888
C      -2.38027982      1.43899321     -0.62960673
N      -1.53867800      0.50419843     -0.06951989
N      -0.31467189      0.22767858     -0.58897866
C       0.39552749     -0.64551893      0.00329294
C       1.76173020     -0.98270593     -0.50776148
O       2.76305230     -0.73532772      0.47825750
H      -3.31731095      1.49354177     -0.04541113
H      -1.85661487      0.00923195      0.75805606
H       0.06186710     -1.15377027      0.91515844
H       1.82810232     -2.05079197     -0.72392552
H       1.94317375     -0.43111677     -1.43322350
H       2.81434726      0.21566601      0.61984084
