15
b3lypvtz=-193609.56624867
C      -2.30712871     -0.23699021      0.13225368
C      -1.00355895     -0.03030735     -0.01229303
C      -0.30487388      1.26827427     -0.37183563
C       1.08995020      1.17302626      0.29656159
C       1.32894079     -0.31577363      0.44163258
O       1.09068984     -1.05119989     -0.76117678
C       0.05742221     -1.03196443      0.25445651
H      -3.02886458      0.55811193     -0.00463763
H      -2.69719265     -1.21264868      0.39353983
H      -0.19202261      1.32777396     -1.45535756
H      -0.86891547      2.14339181     -0.05257646
H       1.87138269      1.66405454     -0.28466330
H       1.08027994      1.62719385      1.29076671
H       2.12478002     -0.69685684      1.07146141
H      -0.16683683     -1.98874758      0.70889407
