14
b3lypvtz=-203680.7255464
C       2.62095362     -0.20293024      0.26808213
N       1.70610091      0.48509138     -0.28030402
C       0.36954505      0.16164658     -0.10057602
C      -0.22189006     -1.04011987     -0.15884105
O      -1.58364906     -1.01260382     -0.10425761
C      -1.94734751      0.35072175      0.25221120
C      -0.71408497      1.21833178     -0.05087298
H       2.41811066     -1.02584005      0.96094342
H       3.65925343      0.03069903      0.05051358
H       0.21536050     -2.01058734     -0.33345615
H      -2.18552234      0.35936772      1.31841166
H      -2.83736287      0.61169693     -0.31518641
H      -0.54356101      1.96674715      0.72331744
H      -0.78395735      1.74384900     -1.00805119
