15
b3lypvtz=-216896.07076808
C      -1.32112761      0.68735659     -0.00188200
C       0.04543762      1.39430263      0.23419127
C       0.68946483      0.01106377      0.15888667
C      -0.65493690     -0.66613803      0.38406075
O      -0.89902853     -1.80651645     -0.40992434
C       1.77810691     -0.46093943     -0.68880830
O       1.91468043     -0.38455155      0.74404047
H      -1.59946611      0.67882980     -1.05458575
H      -2.16734291      1.01669619      0.59759508
H       0.12975533      1.82096766      1.23398605
H       0.36242083      2.13461974     -0.49765653
H      -0.79046368     -0.88617909      1.44802000
H      -1.59532993     -2.33243494     -0.00725279
H       1.73726787     -1.46547278     -1.09409992
H       2.37056188      0.25839590     -1.24589066
