13
b3lypvtz=-237035.01311156
N      -2.56430198     -1.10636558     -0.01707730
C      -2.29604438      0.10253608      0.21215890
O      -1.11539594      0.77112564      0.15611861
C       0.04738587      0.03433692     -0.21873968
C       1.20206338      0.98554245     -0.20331783
N       2.40316286      0.68954931     -0.48334832
O       2.52182509     -0.67225539     -0.81787848
H      -1.75800336     -1.66465672     -0.28776590
H      -3.07613339      0.79743871      0.50949725
H      -0.07198123     -0.40039190     -1.21649082
H       0.22693595     -0.79075716      0.47819090
H       1.01943861      2.01843912      0.06680868
H       3.46134851     -0.76454147     -1.00475600
