17
b3lypvtz=-191988.8678618
N      -2.00056899     -0.77647196     -0.11118492
C      -0.75447240     -0.55581180     -0.14591941
C       0.40177778     -1.49559732      0.15886659
C       1.60002117     -0.56490428      0.40192205
C       1.32394552      0.63308625     -0.52819438
C      -0.19901701      0.83678472     -0.48006780
N      -0.57983590      1.85780844      0.50836742
H      -2.20529284     -1.73482801      0.17520337
H       0.58148788     -2.11758493     -0.72440130
H       0.17739014     -2.16945558      0.98645315
H       1.61775979     -0.24223102      1.44591734
H       2.55820086     -1.04249853      0.20023390
H       1.62882447      0.37960733     -1.54597988
H       1.85735574      1.53834537     -0.24193921
H      -0.59679060      1.16228576     -1.44173880
H      -1.58962284      1.84018600      0.61455349
H      -0.20178676      1.61743157      1.41983439
