13
b3lypvtz=-234650.73797902
C      -1.13830004     -0.64505510      0.53519675
C      -0.16364988      0.14051562     -0.35319382
O      -0.44740374      0.55591083     -1.44833875
N       1.08114507      0.32078870      0.24194312
N       2.08537248      0.98683763     -0.37275268
N       3.10870431      1.03418662      0.33008218
N      -2.45036704     -0.85979888     -0.03458829
H      -0.68287487     -1.61110377      0.77441825
H      -1.23793354     -0.11589220      1.48800724
H       1.28554700     -0.04363368      1.16856696
H       3.79989918      1.55200562     -0.21801214
H      -2.87606937      0.03221489     -0.25958384
H      -2.36406957     -1.34697628     -0.91927909
