20
b3lypvtz=-182667.64546262
C       3.16248770      0.00199158      0.66368852
C       2.22219492     -0.22000041     -0.52868595
C       0.83788280      0.31584167     -0.30082008
C      -0.26402426     -0.44467578     -0.34531993
N      -1.58772437     -0.04432015     -0.23428569
C      -1.85451799      1.34066521      0.08556048
C      -2.51156850     -1.00230150      0.34606381
H       2.79028062     -0.50915630      1.55319777
H       4.16703918     -0.36978414      0.45099025
H       3.24560154      1.06411962      0.90441348
H       2.66637877      0.25395540     -1.41215840
H       2.16685283     -1.28822491     -0.75630801
H       0.76087821      1.37807438     -0.09758389
H      -0.16032734     -1.51063104     -0.52539090
H      -1.35042716      1.99178401     -0.62922152
H      -1.51663359      1.61882976      1.09560668
H      -2.92634930      1.52548175      0.01935069
H      -3.53546830     -0.73687879      0.07930161
H      -2.44570312     -1.05274506      1.44335456
H      -2.30533064     -1.99678529     -0.04948447
