17
b3lypvtz=-191970.56574478
C      -1.73139678     -1.58392223     -0.19372381
C      -0.99490820     -0.50192307      0.07062129
C      -1.63409912      0.83259365      0.00468015
N      -1.08247170      1.97318162      0.08074767
C       0.45276294     -0.61654230      0.48304609
N       1.34984286      0.12680682     -0.39996880
C       2.75430630     -0.00846311     -0.03630238
H      -1.31573814     -2.58263694     -0.15858483
H      -2.78007813     -1.49865797     -0.45046190
H      -2.71953342      0.80326977     -0.12449834
H      -0.06707920      1.86942514      0.14843322
H       0.71992028     -1.68167931      0.56053870
H       0.56597132     -0.19448573      1.48825912
H       1.20718651     -0.17233886     -1.35714285
H       2.92488796      0.45315765      0.93836130
H       3.09941763     -1.05211340      0.02401211
H       3.37188689      0.51656326     -0.76450376
