13
b3lypvtz=-190412.28134527
C       2.42620680      1.30465807      0.51342040
C       1.30842732      0.95732502      0.24179436
C      -0.00582415      0.48467431     -0.07024171
C      -0.37245188     -0.88567144      0.30972230
C       0.48063847     -1.82106805      0.72682066
N      -0.79071126      1.32979444     -0.66158704
N      -2.05087070      0.95824544     -0.99229319
H       3.40743477      1.63365008      0.74818727
H      -1.42894728     -1.12516900      0.27907802
H       0.13251728     -2.80307838      1.01655103
H       1.54332473     -1.62934260      0.79412912
H      -2.20369066     -0.00972447     -1.25077249
H      -2.44615345      1.60560658     -1.65480874
