20
b3lypvtz=-182662.60070688
C      -3.38590545      0.17919796     -0.15754692
C      -2.02906914     -0.13123880      0.39551179
C      -0.94988286     -0.41291949     -0.32671334
C       0.39484659     -0.76736359      0.23643543
N       1.47563042      0.04102347     -0.32758349
C       1.40352307      1.43325559      0.08672929
C       2.78188702     -0.52841332     -0.04360396
H      -3.38636998      0.16784041     -1.24797014
H      -3.73180121      1.16232656      0.17402991
H      -4.12850900     -0.54487888      0.18985863
H      -1.94196042     -0.12668037      1.47981860
H      -1.01171473     -0.41282894     -1.41206696
H       0.61649383     -1.81018368     -0.01190491
H       0.36586155     -0.70465853      1.33944530
H       0.42727176      1.84755338     -0.16072752
H       1.56298893      1.56317365      1.17227321
H       2.16411709      2.01303896     -0.43798916
H       2.83563812     -1.54830365     -0.42674626
H       3.01776473     -0.55537714      1.03529286
H       3.55579567      0.05998139     -0.53867636
