11
b3lypvtz=-212970.58241163
C       3.23483505     -0.04725289      0.58611345
C       2.06281060      0.03205734      0.33181296
C       0.69936412      0.10797106     -0.06171013
N      -0.19129108      0.36161240      0.83129547
N      -1.50597868      0.44087266      0.47843241
C      -2.12584630      0.29560594     -0.73547122
O      -1.59119773      0.05314966     -1.79363469
H       4.26700896     -0.11442914      0.82462837
H       0.46190111     -0.05163743     -1.10667515
H      -2.09505203      0.64230605      1.26995288
H      -3.21655401      0.43263075     -0.62474434
