15
b3lypvtz=-191212.39093324
C      -2.00052588     -0.91539830      0.52566963
C      -1.59950147      0.25429110      0.03073308
C      -0.20603888      0.71522818     -0.16151238
N       0.07609376      1.93762765     -0.40945390
C       0.93666183     -0.24805006     -0.03592169
C       2.01554025      0.08042143      0.68043829
N       0.75085042     -1.50020706     -0.63949106
H      -3.05372130     -1.11709055      0.67186863
H      -1.30157240     -1.69460783      0.79212550
H      -2.34587613      1.00248157     -0.22166111
H      -0.77624999      2.50002295     -0.43701690
H       2.85362349     -0.59708424      0.78410481
H       2.06774194      1.03614264      1.17502048
H       1.60206189     -2.03400999     -0.73258692
H       0.23748648     -1.47791948     -1.50808145
