14
b3lypvtz=-201251.38617239
C       2.43261642      0.07488565     -0.23205332
N       1.45536779     -0.70889979     -0.37048853
C       0.41854354     -0.69179659      0.66334818
C      -0.92859514     -0.35587340      0.07241020
C      -1.85784398     -1.26138214     -0.23498502
N      -1.29014976      0.99488206     -0.20372720
N      -0.44833935      1.84066673      0.15040520
H       2.53649421      0.77372692      0.60502631
H       3.22179975      0.07217702     -0.98128691
H       0.36216387     -1.69896236      1.07891976
H       0.65301476      0.00947648      1.47216210
H      -1.69941260     -2.31654164     -0.06384358
H      -2.79543765     -0.94397347     -0.66956398
H      -0.83445788      2.75987555     -0.10213820
