16
b3lypvtz=-227776.65394632
C      -2.59711423     -0.23915240      0.81652940
C      -1.73125052      0.59401245     -0.13460392
N      -0.82053068     -0.15801778     -0.99862720
C       0.28786454     -0.82813022     -0.35912161
C       1.41862764      0.11539152      0.01277753
O       1.41334413      1.31459011     -0.04866094
O       2.48514140     -0.59028617      0.46975368
H      -3.24547253      0.40868814      1.41023081
H      -3.23623803     -0.93062108      0.26203852
H      -1.99566272     -0.82463501      1.51438502
H      -1.13338234      1.31213850      0.42671543
H      -2.37826316      1.18390385     -0.78756002
H      -1.33313048     -0.81236855     -1.57329484
H       0.70591408     -1.56829907     -1.04350278
H       0.03906535     -1.38354163      0.55947368
H       3.16347456      0.05742133      0.71134424
