20
b3lypvtz=-182674.67907826
C      -2.25271206     -0.71970309     -0.49256100
C      -1.24024340     -0.09285725      0.46580954
C      -0.77961188      1.32262315      0.00696323
C       0.74919139      1.24066405     -0.03828899
N       0.99952361     -0.16748476     -0.32047151
C       2.38286907     -0.57326603     -0.20364666
C       0.07921021     -0.89009242      0.55051899
H      -2.58064969     -1.69992014     -0.13997602
H      -1.81212298     -0.84594809     -1.48383881
H      -3.13937250     -0.09056126     -0.59674784
H      -1.69089856     -0.03570243      1.45805213
H      -1.17300444      1.53655130     -0.98776117
H      -1.12850264      2.11135111      0.67321012
H       1.19519833      1.87540120     -0.80607258
H       1.18339286      1.54009168      0.93409456
H       2.48565822     -1.62960287     -0.45709679
H       2.78581540     -0.42615654      0.81480875
H       3.00047832     -0.00033680     -0.89718837
H       0.44875146     -0.90840894      1.59230455
H      -0.02735772     -1.92654488      0.22320589
