16
b3lypvtz=-181079.59112261
C       0.71751819      0.54037726      0.01066464
C       0.43647595     -0.64578440     -0.89528640
C       1.25835928     -0.82432235     -2.18952941
C       2.47169668     -1.46865967     -1.42968735
N       2.53495094     -2.71260415     -2.26397501
C       1.07675640     -2.37853862     -2.16743946
C       1.20200918     -1.96784319     -0.67111100
H       0.26700048      0.39795037      0.99550608
H       0.30471105      1.46085663     -0.40818514
H       1.78872551      0.69374619      0.15597794
H      -0.64017858     -0.78071774     -1.03508471
H       1.30924802     -0.18831727     -3.07413582
H       3.35708677     -0.98564314     -1.02181342
H       2.88808560     -2.49490249     -3.19800696
H       0.28959251     -2.97121527     -2.63085458
H       1.19446200     -2.64818216      0.17836061
