15
b3lypvtz=-193607.33826373
C      -1.27142340      1.04852693     -0.30008928
C      -1.61227995     -0.41882011     -0.17432796
C      -0.19688392      0.04322984     -0.03273913
C       0.67985609     -0.05174621      1.22955244
C       1.85454245     -0.40600375      0.30538665
O       3.00775256     -0.65946752      0.49571334
C       0.98333705     -0.31095551     -0.95626176
H      -1.31774793      1.49725273     -1.28377701
H      -1.56499336      1.70792524      0.50625996
H      -1.88673495     -0.95424951     -1.07385446
H      -2.13487738     -0.74347420      0.71598270
H       0.82717150      0.87701354      1.78482820
H       0.42543298     -0.84535689      1.93525521
H       1.30434257      0.46931915     -1.64958256
H       0.90250568     -1.25319375     -1.50234634
