17
b3lypvtz=-215312.06825046
N      -1.94928852      1.06596090     -0.01676697
C      -2.05363833     -0.39980819      0.10185818
C      -0.81485977     -1.13430733     -0.41741668
C       0.46988905     -1.01362667      0.43275173
C       1.46485920      0.08441365      0.05207802
N       0.98808856      1.35386349      0.09399185
O       2.62084274     -0.18181719     -0.23593312
H      -2.69396540      1.51752021      0.50068469
H      -2.06094959      1.34489367     -0.98581991
H      -2.18642661     -0.63319937      1.16064433
H      -2.93535634     -0.79143216     -0.42027700
H      -0.61348838     -0.83108026     -1.44955067
H      -1.08055315     -2.19277239     -0.46851934
H       1.03937409     -1.93753930      0.36160087
H       0.19880371     -0.88335461      1.48510555
H       1.60545844      2.08938047     -0.20589120
H      -0.00771270      1.52590708      0.20017266
