17
b3lypvtz=-191975.35868097
C       3.70702235     -0.32535390      0.08550542
C       2.40236412      0.40736106      0.00280675
C       1.20993269     -0.19691837     -0.04756861
N      -0.01919236      0.42177600     -0.15758282
C      -1.24436211     -0.23592891     -0.06017301
C      -2.43161555      0.36161485      0.08288768
N      -3.68705395     -0.27822968     -0.02441572
H       4.35477463     -0.10603006     -0.76942890
H       3.55263888     -1.40582186      0.11032665
H       4.27206314     -0.05309873      0.98261804
H       2.44528393      1.49307386     -0.02160398
H       1.14750462     -1.27990840     -0.01814289
H      -0.03168135      1.42862772     -0.15700207
H      -1.17630192     -1.31392779     -0.15553314
H      -2.49340748      1.43894006      0.19572989
H      -4.31656599     -0.03409365      0.72913831
H      -3.61123564     -1.28535221     -0.07763862
