13
b3lypvtz=-190430.46439237
C      -2.79996754     -1.12774060     -0.12952878
C      -2.13057518     -0.13705523     -0.02577469
C      -1.27072388      1.04987940      0.07760595
N       0.12683765      0.85169634     -0.31123474
C       0.82259863     -0.13841823      0.50707399
C       2.21467201     -0.28014985      0.08007493
N       3.30329953     -0.41249313     -0.26535222
H      -3.40294671     -1.99701435     -0.21954214
H      -1.29065827      1.42270249      1.10532336
H      -1.67805729      1.84737772     -0.54637721
H       0.17790194      0.58521105     -1.28753151
H       0.81801692      0.20211092      1.54608550
H       0.35918817     -1.13508753      0.49529155
