16
b3lypvtz=-181150.80387837
C      -0.59564106      1.63870938      0.01733865
C      -0.62127059      0.12878801      0.11718769
C       0.59124840     -0.48651618      0.80998886
C       1.84515626     -0.24415680      0.09566255
N       2.82402708     -0.04475398     -0.47515420
C      -1.25567291     -0.66151155     -0.99444150
C      -1.94117517     -0.55865661      0.34607219
H      -0.55637005      2.09823056      1.00837822
H       0.27274149      1.98296930     -0.54809814
H      -1.48955857      2.00846767     -0.48537852
H       0.46408126     -1.56632274      0.91098737
H       0.69331238     -0.08354103      1.82188498
H      -0.81445801     -1.61034575     -1.26856737
H      -1.67473126     -0.11265849     -1.82637286
H      -2.82341727      0.06204458      0.42309119
H      -1.96438996     -1.43964037      0.97387991
