16
b3lypvtz=-181130.52794285
C       2.21163285      0.12026564      0.01077332
C       0.91245598      0.22204913     -0.23451991
C       0.05685621     -0.75027989     -1.01784925
C      -1.33191560     -0.53633814     -0.44236743
C      -1.46257706     -0.52625837      1.03301760
N      -1.38410943      0.74468586      0.29920782
C      -0.01998137      1.30819376      0.26815608
H       2.73575045      0.86029567      0.60310264
H       2.80368874     -0.69769035     -0.38063986
H       0.05596468     -0.48657523     -2.08069419
H       0.40988745     -1.77909728     -0.93673502
H      -2.19146936     -0.76740043     -1.05886518
H      -2.42251995     -0.72162325      1.49318238
H      -0.60356477     -0.83495612      1.62082913
H      -0.03315891      2.15360185     -0.42614958
H       0.26306011      1.69112715      1.24955147
