17
b3lypvtz=-194387.89047727
C       2.39323864     -0.27299321     -0.05926424
C       0.96969339     -0.34629507      0.47527402
C      -0.03370488     -1.36827396     -0.14743433
C      -1.04391526     -0.22340318     -0.47582136
C      -2.37719130     -0.21651266      0.26518646
C       0.00652733      0.76889339      0.04498967
O       0.06761475      1.96552652      0.07171138
H       2.90289912      0.61054111      0.32669518
H       2.40098412     -0.21416178     -1.14951891
H       2.96748123     -1.15335797      0.23426725
H       0.98564895     -0.41035550      1.56744021
H       0.35783700     -1.87109786     -1.03070445
H      -0.41049920     -2.11993510      0.54432099
H      -1.21445099     -0.08634876     -1.54662935
H      -3.02531667     -1.01732003     -0.09476166
H      -2.23379907     -0.35845333      1.33846339
H      -2.89376115      0.73267438      0.11838475
