13
b3lypvtz=-239676.20410162
C       0.56921348      1.58228695     -0.19215143
N       0.23008167      0.17302032     -0.00129579
C       1.26667816     -0.74826157      0.15494114
N       2.51385218     -0.54253636      0.08231898
C      -1.08636084     -0.27334982     -0.01387109
N      -1.58685177     -1.40319467     -0.21280327
F      -1.92761651      0.73810547      0.27325928
H       1.15974332      1.94636622      0.64967407
H       1.14546789      1.71066535     -1.11070923
H      -0.33763471      2.16850024     -0.26411144
H       0.91509791     -1.74624248      0.40025119
H       2.75074918      0.41959459     -0.15078757
H      -0.91098896     -2.09811923     -0.50496984
