18
b3lypvtz=-181882.65784269
C       2.03298104     -0.08219110     -0.79572656
C       1.12261047      0.53694154      0.23706200
C       0.74443751     -0.22359203      1.49794153
C      -0.28310072      0.05846998      0.45249562
C      -1.09222190     -0.90706155     -0.41613908
C      -2.17540103      0.19835545     -0.44606325
N      -1.46054429      0.91962616      0.64427592
H       1.84081770     -1.15159930     -0.90123620
H       3.08261226      0.03513997     -0.51601947
H       1.89778420      0.37670071     -1.77834497
H       1.26305825      1.60486502      0.37712165
H       0.67155077      0.32773704      2.42659615
H       1.10636163     -1.23987919      1.60163749
H      -0.65803798     -1.18432401     -1.37495787
H      -1.40352772     -1.80821306      0.11081535
H      -2.20316643      0.73691320     -1.39737161
H      -3.19016982     -0.10018276     -0.18061639
H      -1.29614395      1.90239393      0.45852970
