14
b3lypvtz=-224584.76972831
N      -2.58954537     -0.78512687     -1.53911342
C      -1.29081970     -0.95100904     -1.08406801
C      -0.50637858      0.06171676     -0.66844964
O      -0.96512362      1.35187518     -0.75778994
C       0.81335387     -0.12622837     -0.12270910
N       1.48207271      0.90137728      0.24692942
N       2.78139299      0.72656372      0.68638940
H      -2.89970068     -1.45381831     -2.22536369
H      -2.82194554      0.16465898     -1.78881368
H      -0.92927768     -1.96627986     -1.01049096
H      -0.24181436      1.91239026     -0.43588187
H       1.20370359     -1.14425849     -0.05163127
H       2.94086108     -0.17145849      1.13733773
H       3.02342131      1.47959725      1.31365504
