17
b3lypvtz=-217678.85255416
C      -2.38895614     -0.01235241     -0.01163495
C      -0.91395634      0.04259935     -0.36437206
C      -0.18418998      1.17617558      0.34102687
O       1.19860581      1.23335333     -0.00621778
C       1.76554508     -0.03321326     -0.33960384
C       1.04206823     -1.17117072      0.35168265
O      -0.33502101     -1.22513025     -0.01744392
H      -2.84826593     -0.88420115     -0.47690205
H      -2.90664715      0.88041996     -0.36680619
H      -2.52488199     -0.09280434      1.06806358
H      -0.80828400      0.18876448     -1.44756817
H      -0.61911190      2.13644590      0.05947061
H      -0.29790159      1.06042180      1.42685334
H       2.81270332     -0.00807408     -0.03230226
H       1.73587212     -0.18095275     -1.42594133
H       1.48654956     -2.12770089      0.07081899
H       1.13595191     -1.06370154      1.43915252
