13
b3lypvtz=-237042.80952772
N       1.19941185      1.72864425     -0.80939281
N       0.14888131      1.03285467     -0.89962710
C       0.07315693     -0.08945908     -0.08778304
C       1.07907931     -0.46144655      0.75817498
O       2.21282608      0.18700463      0.90483335
C      -1.20086448     -0.86498156     -0.16930252
O      -2.17153080     -0.26775513      0.69771668
H       1.12571530      2.50814594     -1.46544428
H       0.98934465     -1.35184240      1.37309572
H       2.14737392      0.98725687      0.28666170
H      -1.55185890     -0.85361209     -1.20532674
H      -1.01880212     -1.90686949      0.11867676
H      -3.03263306     -0.64804003      0.49791731
