14
b3lypvtz=-180334.51984466
C      -2.42452147     -1.54461209     -0.16838394
C      -1.67699153     -0.64108084      0.07739257
C      -0.79257356      0.48360016      0.41712873
N      -1.16044348      1.66467747     -0.39187989
C       0.62036716      0.14543963      0.20236398
C       1.78272438     -0.11429360      0.05475405
C       3.18689622     -0.44271327     -0.14236639
H      -3.07634194     -2.34980436     -0.39876765
H      -0.91792594      0.66146757      1.49692007
H      -0.56651884      2.44257345     -0.12738992
H      -2.11849119      1.92487757     -0.18512782
H       3.59477583      0.08882346     -1.00420467
H       3.31406182     -1.51247152     -0.31973544
H       3.78365253     -0.17418765      0.73143631
