12
b3lypvtz=-247125.43260778
C      -0.27559101      2.24926139      0.08232457
N       0.45180978      2.62425296      1.03024864
O      -0.50730855      0.98482409     -0.39580882
N       0.21893404     -0.02065032      0.32621146
C      -0.06094950     -1.16078580     -0.20507625
N       0.41141234     -2.31920754      0.34418501
O      -0.83989592     -1.36058096     -1.27708268
H      -0.85764054      2.93979297     -0.52206921
H       0.91115870      1.82830380      1.47090890
H       1.14617363     -2.19843945      1.02162525
H       0.54505585     -3.07841719     -0.30395162
H      -1.14315883     -0.48835394     -1.57151524
