14
b3lypvtz=-203685.24937514
C      -0.44687689     -1.15213718     -0.42615967
C      -1.41551131      0.01903040     -0.07939630
C      -0.22443878      0.97246738     -0.11671438
N      -0.00462274      2.20576586     -0.02141788
C       0.75876898     -0.18135600     -0.36755789
C       1.74023974     -0.36472649      0.76580566
O       1.73602376     -1.29331476      1.53189765
H      -0.61294212     -1.58774745     -1.40823629
H      -0.39721125     -1.94316081      0.31718264
H      -1.88177732     -0.05317555      0.90451517
H      -2.19032680      0.23826815     -0.81471087
H      -0.86656299      2.72931626      0.14150366
H       1.32903433     -0.04543888     -1.29025433
H       2.47620338      0.45620906      0.86354281
