15
b3lypvtz=-191211.35844797
C      -1.46294445     -0.05517378     -0.85990327
C      -1.44572557     -0.33259593      0.63304624
C      -0.17738307     -0.01410366     -0.10311491
C       0.64500968      1.26393173      0.12823669
N       2.02200072      0.81035109      0.39232608
C       2.03401073     -0.44002651      0.15418226
N       0.85838876     -1.02125915     -0.29881496
H      -1.63332812     -0.89254507     -1.52353727
H      -1.88258756      0.88143434     -1.20420518
H      -1.84657870      0.41723829      1.30315706
H      -1.61297353     -1.35324097      0.95445068
H       0.64366334      1.90327622     -0.76027653
H       0.27296080      1.86153580      0.96258999
H       2.92168553     -1.05551746      0.24843540
H       0.66380146     -1.97330494     -0.02657226
