12
b3lypvtz=-249550.22059909
N       3.03534816      0.35364055      0.21840582
C       1.95312180     -0.29403322      0.18772561
C       0.61869397      0.36661992     -0.06197696
O       0.48165763      1.55143316     -0.24711483
O      -0.37707474     -0.52743005     -0.04929948
C      -1.71520236      0.00124802     -0.28609487
O      -2.61317323     -1.04086197     -0.21455115
H       2.84033273      1.34706471      0.05249113
H       1.94698745     -1.37078678      0.34427430
H      -1.70106808      0.50804369     -1.25282698
H      -1.95172295      0.70848009      0.50526243
H      -2.51790038     -1.60341812     -0.99039501
