11
b3lypvtz=-212993.93467469
C      -2.11126605     -0.61269399     -0.38350903
N      -1.08194795     -1.09428115      0.16597152
C       0.03139708     -0.23418193      0.54790182
C      -0.08482915      1.18458681      0.20055695
N      -0.25990482      2.28292943     -0.09160601
C       1.33119125     -0.87086952      0.00785319
O       2.26949910     -0.25139754     -0.39594720
H      -2.90894287     -1.29771763     -0.65701460
H      -2.25566110      0.44788508     -0.60258702
H       0.12428946     -0.31038296      1.63983644
H       1.30326907     -1.97400259      0.05284094
