16
b3lypvtz=-181127.344763
C       1.58081203      0.70050948     -0.25678093
C       0.93245164     -0.40684826      0.53290278
C       0.34032286      0.98800953      0.54564710
C      -0.96086891      0.92923430     -0.19491119
C      -1.17322433     -0.46822130     -0.65935743
C      -0.00294987     -1.34614967     -0.22596480
N      -2.02778946      0.10318665      0.39072927
H       2.51683507      1.09697078      0.11214607
H       1.49891063      0.67514190     -1.33650451
H       1.45849516     -0.78251321      1.39932088
H       0.42135555      1.62328403      1.41904464
H      -1.30063236      1.78995322     -0.75881575
H      -1.68673953     -0.69601299     -1.58449543
H       0.48627707     -1.79587162     -1.09407731
H      -0.34261591     -2.17056836      0.40769546
H      -1.74063966     -0.24010445      1.30342116
