15
b3lypvtz=-216915.83245331
C      -2.19824473     -0.13659969      0.23102508
C      -0.88238473     -0.22506704      0.09343532
C      -0.08227411     -1.42025044     -0.37915995
O       1.29041616     -1.06234827     -0.24850416
C       1.38733031      0.05079225      0.63806801
C       0.11775229      0.86365389      0.42083699
O       0.33537801      1.73564924     -0.69174420
H      -2.85930486     -0.95269763     -0.03405256
H      -2.66738044      0.75951008      0.61815618
H      -0.27145707     -1.66929526     -1.42550760
H      -0.31059187     -2.30552413      0.22782093
H       1.44866285     -0.28400945      1.68196154
H       2.28449646      0.61219132      0.38461218
H      -0.16980816      1.43682683      1.30766989
H      -0.52266910      1.99340932     -1.04314665
