13
b3lypvtz=-190459.90297022
C       1.97239520     -0.84610716      0.00000431
C       0.67910088     -0.52228254     -0.00000566
C      -0.48463731     -1.41437087     -0.00001049
N      -1.62507513     -0.83809974      0.00000569
C      -1.41742390      0.61541646      0.00000768
C       0.09150102      0.84392482     -0.00000147
N       0.76548639      1.91738427     -0.00000652
H       2.29836331     -1.87811060     -0.00000357
H       2.72967593     -0.07326669      0.00001232
H      -0.40864191     -2.49778231      0.00000118
H      -1.89705651      1.05515430      0.87840321
H      -1.89707048      1.05516125     -0.87837666
H       0.15966851      2.73880280     -0.00000203
