13
b3lypvtz=-213761.12506546
C       3.11139685     -0.74565851     -0.19088598
N       2.14628029      0.01303478      0.14116816
C       0.85240683     -0.37866470     -0.16985152
C      -0.18797164      0.39954670      0.16539524
N      -1.49214079      0.03896383     -0.13009714
C      -2.43356606      0.81605705      0.21148351
O      -3.71964133      0.53664532     -0.03936969
H       2.97314759     -1.69898708     -0.71340241
H       4.12779279     -0.44800695      0.04802910
H       0.68051227     -1.32246123     -0.68865805
H       0.00864388      1.33773588      0.68330120
H      -2.32413357      1.76908993      0.72998586
H      -3.74272711     -0.31729500     -0.49807215
