13
b3lypvtz=-213776.47187641
C       3.39662622      0.05995201     -0.00002354
C       2.13115911      0.46805008      0.00002530
N       1.02667599     -0.37900964     -0.00002494
C      -0.25874725      0.01951640      0.00002620
N      -1.22296538     -0.83723371     -0.00000497
C      -2.51235048     -0.29108405      0.00002148
O      -2.81110742      0.88325400     -0.00005941
H       3.66522607     -0.98836801     -0.00011082
H       4.19782590      0.78180183      0.00002271
H       1.87254542      1.51887655      0.00010861
H       1.17825230     -1.37906594     -0.00010118
H      -0.42064253      1.09803315      0.00010708
H      -3.28205893     -1.07701867      0.00011648
