14
b3lypvtz=-203658.41371914
C      -2.69516802     -1.13546340     -0.38438770
C      -1.80265434     -0.44277939      0.02132932
C      -0.73135555      0.42729350      0.53310829
O      -0.62142506      1.62131118     -0.24696665
C       0.59985242     -0.27950369      0.56483136
C       1.63558195      0.06722026     -0.19978786
N       2.85337735     -0.59528142     -0.28139690
H      -3.47217757     -1.75776683     -0.75245329
H      -1.00490381      0.69749284      1.56387088
H      -1.50860597      1.89242726     -0.50070644
H       0.66192824     -1.11931386      1.24766465
H       1.53893116      0.90854696     -0.87297611
H       3.05754812     -1.23572719      0.47039242
H       3.64425409     -0.01547520     -0.51038897
