15
b3lypvtz=-191208.44399905
N       2.20862802      0.04958567     -0.50425040
C       0.89554484     -0.13469066     -0.09862979
C       0.11723712      1.04367094      0.45624079
C      -1.31265379      0.52559384      0.54091386
N      -2.00291473      0.10832598     -0.68515697
C      -1.29340418     -0.90731743      0.13120109
C       0.11550819     -1.22077563     -0.23218146
H       2.74945082      0.68208230      0.06615576
H       2.71790571     -0.79579287     -0.71230917
H       0.48840744      1.32764584      1.44705094
H       0.21429986      1.92614336     -0.18313312
H      -1.95903786      0.90871690      1.31900086
H      -1.44215166      0.32753665     -1.50437943
H      -1.93168359     -1.66033366      0.57421442
H       0.43486382     -2.18029125     -0.61473739
