16
b3lypvtz=-227746.47279886
N      -0.72091728      2.01326411      1.11098679
C       0.16087638      1.53884324      0.33697649
C       0.13899966      0.23531784     -0.44223152
C       1.18918607     -0.74237305      0.10135186
O       2.47499305     -0.16900921     -0.12212799
C      -1.23290525     -0.41634803     -0.55434131
O      -1.63760249     -0.89888613      0.72995234
H      -1.51395431      1.37561309      1.19787530
H       1.07535637      2.11806115      0.20255110
H       0.45548778      0.47700144     -1.46418921
H       1.01150921     -0.92262543      1.16409094
H       1.09538483     -1.70029231     -0.42476781
H       3.12330559     -0.64336095      0.40482747
H      -1.95316523      0.31507470     -0.93710022
H      -1.17826705     -1.24221694     -1.27239969
H      -2.48828734     -1.33816352      0.64344546
