13
b3lypvtz=-190456.97066865
C      -0.55626665     -0.44902606      0.81907136
C      -1.77472550      0.13093011      0.04019692
N      -0.83532043      0.40549497     -1.05886284
C       0.27993524      0.05759957     -0.34052704
C       1.59972018      0.16803881     -0.58827986
C       2.55807173     -0.29452242      0.34012872
N       3.34786789     -0.66768127      1.09807144
H      -0.33926756      0.01642937      1.77737372
H      -0.55641079     -1.53088692      0.93385093
H      -2.56856520     -0.56931599     -0.21812941
H      -2.20469440      1.02516675      0.49456229
H      -0.90855632      1.09478829     -1.79024572
H       1.95821180      0.61298477     -1.50721051
