11
b3lypvtz=-213014.71103647
C      -2.40825072     -0.50192614     -0.00000403
C      -1.11757353     -0.14817236      0.00004087
C      -0.58357777      1.22548448      0.00004465
N       0.70517677      1.19894196     -0.00007524
C       0.98604588     -0.19718499      0.00008506
O       2.25765454     -0.57759727     -0.00000315
N      -0.01515936     -1.00962919     -0.00000961
H      -3.18448289      0.25024310      0.00002711
H      -2.69982489     -1.54261860     -0.00002187
H      -1.15482126      2.14449855     -0.00002770
H       2.79919023      0.22275845      0.00000690
