12
b3lypvtz=-226253.58960162
C      -2.39061620     -0.45279277     -0.00009650
C      -1.33504061      0.35224897      0.00006319
N       0.03376009     -0.01121185     -0.00001245
C       0.99681005      1.01841542     -0.00003893
O       0.71502112      2.18772458     -0.00000013
C       0.47399130     -1.33941953     -0.00002431
O       1.63087719     -1.67260599     -0.00003913
H      -2.34639827     -1.53151457     -0.00033845
H      -3.37489270     -0.00938276      0.00001747
H      -1.44521278      1.42651768      0.00026650
H       2.01579010      0.62143997     -0.00013615
H      -0.35113629     -2.06127916      0.00027189
