11
b3lypvtz=-264624.83454958
N      -0.20354182     -0.29710894      1.31012960
C      -0.10894113      0.08466821     -0.07219611
C      -1.13127797      0.87348341     -0.72927569
O      -2.13325186      1.26426866     -0.15857373
C       1.01177930     -0.35879548     -0.68812364
O       1.94614924     -1.07527472     -0.10050996
F       1.29095692     -0.11924407     -1.95283236
H      -1.05340703     -0.82869640      1.46962852
H      -0.28300363      0.52728773      1.89692037
H      -0.95269265      1.10709270     -1.79436788
H       1.61713063     -1.17758109      0.81920088
