15
b3lypvtz=-191201.51487628
C      -2.59163582      0.71100252      0.16694297
C      -1.31173751      0.35943328      0.13024401
C      -0.53072551     -0.82241280     -0.41875111
C       0.65592888     -0.29329284      0.45274581
N      -0.14140946      0.93687393      0.65464173
C       1.97143616     -0.07735725     -0.22713601
N       3.01515981     -0.68434579      0.15371652
H      -2.92188964      1.60575826      0.67720826
H      -3.33789121      0.10404853     -0.32379934
H      -0.89838624     -1.81189379     -0.15932983
H      -0.34301891     -0.77290376     -1.49140183
H       0.80849817     -0.88892950      1.35476355
H      -0.13310265      1.44292402      1.52907330
H       1.94222064      0.63152522     -1.06387854
H       3.81655331     -0.44043002     -0.42808879
