15
b3lypvtz=-191210.65225509
C       0.48596599      1.82507552      0.00007094
C       0.11612656      0.34316125      0.00003435
C       1.31919981     -0.48250368     -0.00002868
N       2.28239243     -1.11299494     -0.00023657
C      -0.92959136     -0.13840192      1.05896310
N      -1.63172806     -0.89122738      0.00000293
C      -0.92958850     -0.13835799     -1.05892344
H       1.07483716      2.07933904     -0.88192102
H       1.07485808      2.07929271      0.88206213
H      -0.41729442      2.43506174      0.00009742
H      -1.48261336      0.71453753      1.46670927
H      -0.55438688     -0.74956315      1.87960235
H      -2.64011384     -0.81545215      0.00000353
H      -0.55436855     -0.74948977     -1.87957687
H      -1.48260505      0.71459520     -1.46664842
