13
b3lypvtz=-213754.67872966
C      -0.73985986     -1.18734589      0.13899904
C      -1.00632670      0.17962743     -0.49453725
C      -0.58688354      1.38722654      0.24481356
N       0.32284896      0.78151080     -0.76696046
C       1.18600309     -0.15646318     -0.13580719
N       0.71026236     -1.22159125      0.36867847
O       2.47966198      0.18170163     -0.14125517
H      -1.02683965     -1.99226254     -0.54212618
H      -1.28234239     -1.34570444      1.07399589
H      -1.73634355      0.26915859     -1.28747971
H      -0.97597980      2.35585347     -0.03805306
H      -0.30338552      1.28433760      1.28542571
H       2.95918460     -0.53604876      0.29430635
