15
b3lypvtz=-214545.08180655
C       0.09819769      1.98866338      0.29419519
C       0.08664640      0.48818846      0.26865745
C       1.15516895     -0.25044004      0.61275517
N       1.24537290     -1.62531138      0.71440516
N      -1.17256471     -0.06061856     -0.11144070
C      -1.45425636     -1.15858484     -0.85296945
O      -0.64924020     -1.93598252     -1.33906509
H      -0.68951557      2.38676035      0.94579442
H      -0.06360053      2.41593669     -0.70020633
H       1.04822013      2.36292829      0.67193143
H       2.04788224      0.29425257      0.89358479
H       2.19046644     -1.97068904      0.75514113
H       0.67932298     -2.12689919      0.03440625
H      -1.97958107      0.48137064      0.16073771
H      -2.54251928     -1.28957482     -0.98002713
