18
b3lypvtz=-181882.73106677
C      -1.44919561      1.38767783      0.02018913
C      -0.72777984      0.19518502     -0.58880782
C      -1.28785626     -1.19790476     -0.19218426
N      -0.13076260     -1.40389418      0.72091954
C       0.55859103     -0.25437061      0.12197139
C       1.60831302      0.56070707      0.79720673
C       1.94789563     -0.26440733     -0.43438841
H      -0.89225546      2.31329687     -0.14024542
H      -1.57956844      1.25665543      1.09570552
H      -2.43690123      1.51495395     -0.42870450
H      -0.60904238      0.33233091     -1.66415865
H      -1.33229990     -1.89743301     -1.03141158
H      -2.25231918     -1.19898487      0.32023285
H       0.34517521     -2.29060659      0.60639780
H       1.96996127      0.20668848      1.75384189
H       1.57944008      1.63814068      0.69766645
H       2.14049788      0.25631204     -1.36426181
H       2.54810677     -1.15444694     -0.28986886
