15
b3lypvtz=-216884.30546745
O       2.08636352      0.10610275     -0.83228425
C       1.31595242     -0.58169421      0.15394513
C      -0.06571397     -0.02037149      0.16979551
C      -0.42502365      1.46064489      0.22408070
O      -1.56557770      1.25397978     -0.66473761
C      -1.21595443     -0.12538757     -0.80231664
C      -1.30055037     -0.83000707      0.51130198
H       3.00863765     -0.14595448     -0.73298713
H       1.77324530     -0.46718303      1.14610309
H       1.26941736     -1.65580825     -0.06339531
H       0.31722375      2.09541580     -0.25911931
H      -0.72243375      1.87807539      1.18928137
H      -1.31267586     -0.58561345     -1.77558735
H      -2.00126988     -0.47861170      1.25986085
H      -1.16164038     -1.90358737      0.47615898
