11
b3lypvtz=-192020.23150694
C      -1.80691696      1.71061601      0.50388200
C      -0.99970413      0.84020126      0.33944533
C      -0.02121434     -0.20286453      0.13253344
C      -0.46083091     -1.51791146     -0.39785947
O      -0.15853760     -1.36861699      0.97994149
C       1.33290716      0.24084825     -0.10781052
C       2.45219787      0.61677804     -0.31308262
H      -2.52133838      2.48110237      0.65582136
H      -1.51040131     -1.64850683     -0.63868235
H       0.24873920     -2.10068208     -0.97535934
H       3.44509939      0.94903597     -0.48886814
