18
b3lypvtz=-202809.4632114
C      -1.31047843     -1.75960755     -0.10456628
N      -0.87806580     -0.39592939      0.12956510
C      -1.71896319      0.65896987     -0.11991691
N      -1.52322218      1.91583660     -0.02125285
C       0.47663587     -0.19603648      0.61039865
C       1.51301511     -0.03053205     -0.50687945
N       2.84870817      0.10116931      0.07851181
H      -0.70615959     -2.25428857     -0.87125908
H      -2.34517529     -1.76118002     -0.44272726
H      -1.24878933     -2.35609067      0.81071505
H      -2.70563870      0.32786147     -0.44476623
H      -0.57595982      2.14500396      0.27361276
H       0.76125010     -1.04828110      1.23003858
H       0.49510042      0.68227599      1.26182290
H       1.21542168      0.80801795     -1.14929357
H       1.50684543     -0.92611448     -1.13158018
H       2.95645904      1.00573720      0.52315533
H       3.56053151      0.04747095     -0.63928137
