16
b3lypvtz=-204451.14970683
C      -3.17047722     -0.24025374     -0.13136470
C      -1.85637817     -0.43396990      0.03728558
C      -0.85446768      0.60291558     -0.04384142
C       0.47999121      0.46993393      0.13033237
N       1.35292403      1.54806416      0.11146926
C       1.18398609     -0.82611812      0.44409501
O       2.32380695     -1.03445653     -0.40007515
H      -3.87395404     -1.05806363     -0.06468952
H      -3.57793728      0.74227130     -0.33779840
H      -1.52086884     -1.44352956      0.24885005
H      -1.23045091      1.60267200     -0.24850986
H       2.28859457      1.31512796     -0.18588770
H       1.00302851      2.39441493     -0.30870395
H       0.50100081     -1.67189219      0.39025196
H       1.58929714     -0.78174506      1.45687362
H       2.00599282     -1.18826515     -1.29613114
