15
b3lypvtz=-191215.39134468
C       1.32576225     -1.76838503     -0.09408670
C       1.47951466     -0.44581048     -0.19692056
N       0.65565827      0.55631189      0.30033099
C       0.63912150      1.83523108     -0.39443550
C      -0.57074490      0.18174749      0.96157329
C      -1.66524514     -0.21535052      0.04878062
N      -2.51258368     -0.48915859     -0.67951564
H       0.45805334     -2.24006335      0.34327793
H       2.09985088     -2.42004636     -0.46875879
H       2.35913568     -0.04718437     -0.68910738
H      -0.00231151      1.82879825     -1.28411773
H       1.65240300      2.08675966     -0.70373818
H       0.28616993      2.61601004      0.28077026
H      -0.37495792     -0.64269161      1.64879012
H      -0.92704434      1.02472489      1.55690027
