18
b3lypvtz=-205186.25489185704
C      -2.32921686      0.58223665     -0.97654704
C      -1.51886132      0.40007274      0.29655500
N      -0.11326186      0.02733478      0.00107169
C       0.78840573     -0.17815724      1.19768125
C       2.15893106     -0.54306996      0.72561033
C       2.49366146     -0.65778590     -0.60082046
O       1.73546243     -0.48291842     -1.62258280
H      -3.35410730      0.85405742     -0.72565630
H      -1.91427995      1.37324392     -1.60231672
H      -2.35867956     -0.33589698     -1.56458592
H      -1.93467563     -0.38679087      0.92583195
H      -1.49102193      1.31596804      0.88678770
H       0.37060274      0.67823855     -0.63197154
H      -0.01639112     -0.80458916     -0.59597490
H       0.29774110     -0.94617209      1.81210082
H       0.73799751      0.75737981      1.77241678
H       2.90128503     -0.71873925      1.49073904
H       3.54640845     -0.93441201     -0.78833888
