15
b3lypvtz=-214499.43860602
N       2.38026231     -0.66694066      0.05142495
C       1.13971459     -0.82352188     -0.12619835
C       0.05973909      0.23399695     -0.03860285
N       0.64402519      1.55322347      0.05856978
C      -0.99557836     -0.09800449      1.05017319
O      -1.96054787     -0.51134546      0.06230730
C      -1.12495363     -0.04074623     -1.01541172
H       2.57471005      0.31054790      0.28656667
H       0.77366330     -1.82707443     -0.35751069
H      -0.06134098      2.25624851      0.23827335
H       1.12234190      1.80907554     -0.79809803
H      -0.75098264     -0.89906326      1.74935028
H      -1.32422361      0.78394982      1.61003778
H      -0.97677059     -0.80597057     -1.78105203
H      -1.52097374      0.86950677     -1.47699364
