15
b3lypvtz=-193619.19643576
C       1.50231225     -0.00000232     -1.15749619
C       0.56414110      0.00000024      0.05142242
O       1.41933822      0.00000277      1.20347331
C      -0.39654136      1.18079210      0.02013901
C      -1.65521198      0.74021519     -0.06329960
C      -1.65521189     -0.74021547     -0.06329641
C      -0.39654122     -1.18079187      0.02014413
H       2.13954332     -0.88407133     -1.12810664
H       0.93655620     -0.00000438     -2.08845612
H       2.13954321      0.88406690     -1.12811049
H       0.85836764      0.00000444      1.98684175
H      -0.05757929      2.20576733      0.04695547
H      -2.54663417      1.34822812     -0.12268483
H      -2.54663401     -1.34822877     -0.12267891
H      -0.05757902     -2.20576694      0.04696511
