15
b3lypvtz=-214516.11493384
N       2.53637163     -0.28589887      0.40743176
C       1.35062049     -0.70255407     -0.32643855
C       0.25443089      0.34184563     -0.19852692
O       0.48962697      1.50729309      0.03684413
N      -1.02193233     -0.12387752     -0.50115994
C      -2.20624788      0.43071840      0.11034046
C      -1.80684310     -0.98778640      0.36775370
H       3.37065566     -0.69552603      0.00936683
H       2.62056121      0.72273978      0.34403693
H       0.98284196     -1.66184050      0.04592752
H       1.50327534     -0.83254258     -1.40865529
H      -2.05278124      1.15433706      0.90125835
H      -3.02832455      0.64093950     -0.56168748
H      -2.33221418     -1.79943651     -0.11975639
H      -1.39945987     -1.22017497      1.34483388
