15
b3lypvtz=-214496.73515088
C       2.97151076     -0.91150278     -0.21970010
C       2.32251315      0.42447225      0.17226885
C       0.85111366      0.28670522      0.39034528
N      -0.00161596      0.92958809     -0.29757686
C      -1.35973820      0.68492606     -0.11907390
N      -1.81895329     -0.50212215     -0.05980952
O      -3.22196036     -0.49059136      0.05836543
H       2.79300942     -1.67818665      0.53641941
H       4.04990588     -0.79448152     -0.32795330
H       2.57249065     -1.27545020     -1.16700368
H       2.49432170      1.18052545     -0.59348801
H       2.77773085      0.78074578      1.10293545
H       0.52748581     -0.41012055      1.17236825
H      -2.01313756      1.55382095     -0.11300078
H      -3.44242251     -1.42582060      0.01027849
