14
b3lypvtz=-203586.16044599
C       0.94807301      0.05943200     -0.05709562
C       0.25752528     -0.66751554      0.80255928
C       0.35316033     -1.26712682      2.21931333
C      -1.08971483     -1.01905563      2.27704865
N      -1.10469279     -1.22749889      0.77717995
C      -0.94599479     -1.63020998      3.71372574
O       0.44180968     -1.07688218      3.69350023
H       0.53977588      0.34640673     -1.01689256
H       1.94986523      0.38108782      0.18543999
H       0.57177246     -2.32727005      2.05937802
H      -1.24933759      0.04392652      2.47139301
H      -1.79124621     -0.69625162      0.25269881
H      -1.53172937     -1.18584425      4.51544925
H      -0.92266630     -2.71899812      3.77110190
