15
b3lypvtz=-214508.36944008
N       2.83768919     -0.41304829      0.04021831
C       1.89648822      0.44591634      0.10528902
N       0.55290566      0.23426085      0.17597967
C      -0.20058081     -0.97841984     -0.14000523
C      -1.43780113     -0.08047281     -0.43897447
O      -2.52461845     -0.18309813      0.45345437
C      -0.55792975      1.14841914     -0.11729621
H       2.47507818     -1.36758506      0.03704267
H       2.15645623      1.50576037      0.12677838
H      -0.33965796     -1.65732517      0.70487344
H       0.19550041     -1.53449187     -0.99602020
H      -1.77111363     -0.12864232     -1.47731266
H      -3.07113500     -0.93371861      0.20133608
H      -0.38074951      1.82767864     -0.95443353
H      -0.91724966      1.71199776      0.74568136
