14
b3lypvtz=-203644.83125775
C      -1.24192338      0.83825277      0.24762473
C      -1.04245019     -0.60166296     -0.18357359
C       0.28270850     -1.08507395      0.30651954
N       0.19752480     -0.27494458     -0.96272745
C       0.26773885      0.95798037      0.00123794
C       0.96475551      0.04971461      1.03610126
O       0.80594153      0.25138529      2.42040608
H      -1.80562095      1.39010805     -0.50329184
H      -1.63917468      1.06964597      1.23964621
H      -1.78083519     -1.28727157     -0.57601346
H       0.55749971     -2.13074545      0.28645965
H       0.72184426      1.88351054     -0.33580691
H       2.03760700      0.03010338      0.85087157
H      -0.12101579      0.13109753      2.64844626
