17
b3lypvtz=-194382.12847193
C       1.56443352      1.46780976     -0.45075430
C       1.16408865      0.27017087     -0.02058143
C       2.12526121     -0.72477826      0.58504562
C      -0.25689965     -0.14051228     -0.11017947
O      -0.49320187     -1.42054020     -0.57953221
C      -1.28389127      0.60912711      0.29948027
C      -2.72627485      0.21860919      0.21704873
H       2.59334126      1.78816020     -0.34599061
H       0.87386820      2.15926644     -0.91324527
H       1.80468453     -1.01011261      1.58969104
H       2.18282319     -1.64992280      0.00562942
H       3.12960556     -0.30801930      0.64284855
H       0.23162026     -1.68818951     -1.15194837
H      -1.04198326      1.56240192      0.74950248
H      -3.31138355      0.99450968     -0.28477363
H      -3.16272641      0.09353006      1.21262648
H      -2.85616453     -0.71474325     -0.32683231
