13
b3lypvtz=-237019.35161716
C      -0.48717458     -1.27092584     -0.26832548
C      -0.46959131      0.08420076      0.37052799
N      -1.51547318      0.72164982      0.75830755
O      -2.68300347     -0.00381660      0.51255643
C       0.77324204      0.80849783      0.61003945
N       1.89489910      0.30169250      0.27771160
O       2.95070093      1.15783569      0.59515661
H       0.52063319     -1.59380882     -0.50970570
H      -1.09224338     -1.24826490     -1.17568793
H      -0.95249952     -1.99424124      0.40280765
H      -3.36895731      0.58349562      0.84609796
H       0.70556346      1.78716062      1.07858897
H       3.72390402      0.66652457      0.29876606
