14
b3lypvtz=-203669.59337773
O       2.35235589      0.42100674      0.81375109
C       1.15033883      0.27246144      0.18486646
C       0.39890917     -1.03773028      0.15152844
C      -0.89471176     -0.62025421     -0.53459290
C      -1.75026565      0.42215801      0.08080777
N      -0.78447149      0.79543490     -0.97600867
C       0.47055209      1.23823892     -0.43236120
H       2.76517845     -0.44039478      0.92631062
H       0.25292030     -1.45586103      1.15244530
H       0.93032800     -1.79230804     -0.43960979
H      -1.33767274     -1.29941853     -1.25074575
H      -1.52382478      0.74524718      1.09038063
H      -2.79246259      0.48296739     -0.20751591
H       0.76282627      2.26865228     -0.55925610
