16
b3lypvtz=-204462.14302648
N       2.35497619      0.04545577     -0.16941807
C       0.97503996      0.11338417     -0.00315988
C       0.24510426      1.22946078      0.13836605
C      -1.25917889      1.22017841      0.09299155
C      -1.76491501     -0.15440670     -0.35651014
C      -0.93254436     -1.24339813      0.30014266
O       0.44786290     -1.14295930     -0.07540124
H       2.82913855      0.91178439      0.03107651
H       2.77432154     -0.73726160      0.31240792
H       0.76350380      2.17352168      0.24015567
H      -1.68374077      1.46939176      1.07309686
H      -1.62611589      1.98934374     -0.59335049
H      -2.81769584     -0.29463328     -0.10291001
H      -1.67300045     -0.25367558     -1.44063543
H      -1.23960233     -2.24107717     -0.00882429
H      -1.00484167     -1.17665096      1.39143434
