14
b3lypvtz=-203694.26770912
C       0.53201121      1.61408376      0.00001248
C       0.30394795      0.29699358      0.00001653
C       1.48987966     -0.62755737      0.00000948
O       2.63294184     -0.23443505     -0.00002600
C      -1.05449882     -0.30522461      0.00001671
C      -2.24611487      0.62228908      0.00000554
N      -1.14039608     -1.57845175      0.00002617
H       1.55315617      1.97227529      0.00001363
H      -0.25951358      2.34910559      0.00000841
H       1.24707185     -1.69887461     -0.00003050
H      -2.23986340      1.26957012      0.87914510
H      -3.17202937      0.04929950      0.00000385
H      -2.23985462      1.26956122     -0.87914048
H      -2.11368595     -1.88120575      0.00002508
