12
b3lypvtz=-223783.31410115
C      -2.19534421     -0.86253621      1.85266378
N      -1.31557400     -0.51833831      1.00407465
N      -0.14836774     -0.03936563      1.62574690
C       0.76610304      0.31779380      0.80052696
C       0.71946309      0.27882444     -0.65216448
N       1.76094634      0.68986020     -1.26921710
O       1.60728176      0.60880307     -2.64399094
H      -3.13831865     -1.24779665      1.48209067
H      -2.02730889     -0.78104835      2.92615954
H       1.68506190      0.69425170      1.23881025
H      -0.16037130     -0.08288778     -1.17060165
H       2.44642868      0.94243971     -2.98034552
