15
b3lypvtz=-214517.96099769
C      -2.76882051      0.20734769      0.13601596
O      -1.46682801      0.22003453     -0.41565455
C      -0.56888677     -0.62490417      0.25889652
C       0.82433272     -0.43632026     -0.35252256
N       1.72620128     -1.45502896      0.19748066
C       1.35334945      0.89838336     -0.04506145
N       1.79042619      1.93598096      0.18840517
H      -2.76336868      0.53755721      1.18100466
H      -3.21572499     -0.79320652      0.08643856
H      -3.37294885      0.89547976     -0.45112233
H      -0.53098081     -0.40561498      1.33182743
H      -0.85564208     -1.67976351      0.14078076
H       0.70948364     -0.47940555     -1.44365364
H       2.68840154     -1.24970423     -0.04131133
H       1.50215188     -2.35881231     -0.20192286
