22
b3lypvtz=-183440.38849647
C      -1.94251006      1.16413086      0.13813881
C      -1.16047210     -0.05168208      0.63399133
C      -0.01467875     -0.53950346     -0.28129090
C       0.68232531     -1.73435819      0.39527208
C       1.00532837      0.57493390     -0.60022824
C       1.70527256      1.22506138      0.59312939
N      -0.61380964     -0.92747415     -1.57515898
H      -1.33048976      2.06741146      0.13100917
H      -2.79843823      1.35734519      0.78720632
H      -2.30932771      1.00131786     -0.87447570
H      -0.75527367      0.14823497      1.62876121
H      -1.85232159     -0.89117869      0.76254921
H       1.48872924     -2.11810141     -0.23427526
H      -0.03088988     -2.54617529      0.55645448
H       1.10786061     -1.47415125      1.36631719
H       1.76399139      0.14657183     -1.26453235
H       0.49356768      1.33958046     -1.18658534
H       2.40449698      1.98922472      0.24978423
H       0.99701434      1.71272536      1.26458465
H       2.27607713      0.50379281      1.17959247
H       0.11116158     -1.22175232     -2.22104935
H      -1.22761378     -1.72595395     -1.44919446
