15
b3lypvtz=-191167.64901201433
C      -1.25449611     -1.43635486      0.45750516
C      -0.58937735     -0.10072748      0.51019358
C      -0.28752968      0.98600030     -0.47880599
N      -1.35465968      1.12089569      0.52836591
C       1.06831506      1.11650530      0.15970780
N       0.70707250      0.08768007      1.22754884
C       1.75656048     -0.18953195      0.22992020
H      -0.57613322     -2.20456767      0.08384116
H      -2.12963130     -1.39410978     -0.18858247
H      -1.58087280     -1.72845829      1.45819937
H      -0.54566640      1.11856774     -1.52043429
H      -1.09221938      1.72868721      1.30005812
H       1.55889748      2.04401015      0.42900279
H       1.56632536     -0.93384618     -0.53520552
H       2.75341504     -0.21475026      0.65245673
