18
b3lypvtz=-205202.35367251
C      -2.62464447     -0.64326867      0.08270644
C      -1.52118816     -0.02269793     -0.31406350
C      -0.18452272     -0.15158460      0.36087331
C       0.39172587      1.23313435      0.71710897
O       0.73605265      1.95681452     -0.44890383
N       0.76329588     -0.81552775     -0.55376578
C       1.91934697     -1.42590640      0.09820588
H      -3.56659650     -0.51005448     -0.43324022
H      -2.62990908     -1.30251410      0.94339472
H      -1.54642556      0.63682329     -1.17520237
H      -0.31062394     -0.72351663      1.29273011
H       1.26328434      1.10915594      1.37315262
H      -0.35114123      1.81428222      1.26468867
H       1.10286176      1.29519217     -1.05498505
H       0.26868395     -1.51208924     -1.09474639
H       2.50552198     -1.96646438     -0.64460276
H       2.56399896     -0.65780217      0.52595823
H       1.64990431     -2.12438213      0.90357498
