13
b3lypvtz=-190454.51391886
C      -2.34796846      0.01752273     -0.00000290
C      -1.00076838      0.04420309     -0.00000028
C      -0.19641580      1.25116270      0.00000136
C       1.14722711      1.18162301      0.00000033
C       1.78608414     -0.10962210     -0.00000263
N       1.11479565     -1.21504662     -0.00000186
N      -0.22253151     -1.12389915      0.00000193
H      -2.90666286      0.93983913     -0.00000257
H      -2.90343541     -0.90971253     -0.00000426
H      -0.71705635      2.19883913      0.00000244
H       1.75546753      2.07593252      0.00000080
H       2.86249076     -0.20989975     -0.00000451
H      -0.68571043     -2.01656315     -0.00000085
