16
b3lypvtz=-204432.41965345
C       1.00317740      1.70722605      0.03639890
C       0.33349321      0.54517218     -0.02301092
N       0.88590211     -0.71541410      0.06419329
C       2.31939574     -0.89757962      0.02041909
C      -1.15390540      0.54574546     -0.13705503
C      -2.00664475     -0.33053382      0.67787951
O      -1.76127076     -0.63045227     -0.70140697
H       2.07526368      1.75689921      0.14792045
H       0.46453484      2.64208630      0.00082094
H       0.33544923     -1.41795850     -0.40629392
H       2.78632240     -0.44705656      0.89876569
H       2.77884573     -0.44943892     -0.87013139
H       2.54331453     -1.96275864      0.03024660
H      -1.57894048      1.47837574     -0.49072248
H      -1.54120578     -1.00665784      1.38594085
H      -3.02128469     -0.02206567      0.90775139
