19
b3lypvtz=-192731.15237017
C       2.78797903     -1.18343452      0.08952910
C       2.05291650     -0.09166417      0.32622264
N       1.22134621      0.56121810     -0.55948414
C       0.12851733      1.40219500     -0.09999069
C      -1.05745384      0.65631509      0.51662088
N      -1.64907761     -0.27695604     -0.43197671
C      -2.85733536     -0.92267228      0.06526920
H       3.46316127     -1.55819730      0.84270648
H       2.75527948     -1.70556606     -0.85876340
H       2.11323372      0.39744012      1.29361404
H       1.07913415      0.11019092     -1.44914792
H       0.52423280      2.10934639      0.63404700
H      -0.22462368      1.98209677     -0.95365079
H      -0.73896592      0.16608068      1.45228085
H      -1.81909839      1.39207978      0.79209101
H      -0.96501198     -0.98854264     -0.66012942
H      -2.72807171     -1.42995450      1.03410306
H      -3.20455822     -1.65833195     -0.66065437
H      -3.64740678     -0.17850741      0.18517516
