13
b3lypvtz=-213760.29975244557
C      -1.95688069      0.19405958      0.34816172
C      -0.82125034     -0.25407951     -0.56214381
C       0.55454018      0.16116389     -0.05690347
O       0.71849468      0.79006851      0.97216847
C       1.66529551     -0.25729158     -0.90966366
N       2.87716755      0.06584140     -0.53700993
N       3.88517482      0.37827675     -0.15413166
H      -2.91759417     -0.12641570     -0.05596919
H      -1.84547492     -0.22512961      1.34729692
H      -1.97016287      1.27825281      0.45176463
H      -0.94482292      0.15150713     -1.57160096
H      -0.82109763     -1.34241232     -0.68175674
H       1.57661079     -0.81384135     -1.82755534
