9
b3lypvtz=-235524.09504104
C      -1.16239850      0.41859623     -0.11828917
N      -0.14288619     -0.33346620      0.01860814
O       0.98548578      0.45980328      0.25008580
C       2.14716093     -0.27104857      0.41331333
O       2.25989165     -1.44865671      0.37529242
C      -2.43135024     -0.18653168     -0.36445521
N      -3.48443526     -0.60726199     -0.56457432
H      -1.11300597      1.50282607     -0.05642304
H       2.94153780      0.46573956      0.58513300
