14
b3lypvtz=-203672.06988152
C      -1.54738597     -1.07665523     -0.13078550
C      -0.37419965     -0.16342568     -0.17732022
C      -0.30851598      1.28175163     -0.49573828
C       0.28364933      0.76334633      0.82178817
C       1.52711074      0.01498234      0.50120800
N       2.69169019     -0.01283270      0.95386033
O       0.92822551     -0.76025839     -0.49805035
H      -2.42948024     -0.53951568      0.21845789
H      -1.35995544     -1.91654135      0.53888433
H      -1.76297136     -1.47063485     -1.12617413
H       0.34778351      1.63738197     -1.27960293
H      -1.22872379      1.83864277     -0.37106862
H      -0.02837982      1.11713659      1.79073606
H       3.26115298     -0.71337774      0.48093522
