18
b3lypvtz=-181903.07654289
C       1.88804349     -1.64319824      0.31708370
C       1.35583179     -0.63879630     -0.37458637
C      -0.01544046     -0.11943912     -0.21665490
C      -1.06575228     -0.94503987     -0.04329315
C      -2.49347651     -0.52623977      0.14287873
N      -0.14497266      1.26764219     -0.38209286
C       0.73841239      2.16664219      0.35414684
H       2.88850272     -1.99889480      0.10987970
H       1.34028634     -2.13901334      1.10824501
H       1.95742513     -0.13767040     -1.12783502
H      -0.87226052     -2.00715638     -0.10781322
H      -2.58463607      0.45404986      0.61814730
H      -3.02464933     -1.23986291      0.77562866
H      -3.04307375     -0.47926151     -0.80449852
H      -1.10554347      1.57173288     -0.35197595
H       1.77902340      1.93155615      0.13586736
H       0.60631746      2.11727593      1.44270295
H       0.55370535      3.19020846      0.02860972
