17
b3lypvtz=-215287.79931528
C      -1.40217191      1.15728806      0.21789232
C      -0.84712459      0.10023986     -0.73434389
C       0.59459069     -0.27269735     -0.50170452
C       1.46069576      0.31938258      0.32539765
N       2.76650018     -0.14093938      0.55267735
O       1.02211992     -1.33852773     -1.26937200
N      -1.61760709     -1.16533854     -0.75276830
H      -2.44521119      1.36644897     -0.02478457
H      -0.84990987      2.09515623      0.14231901
H      -1.35464523      0.81548864      1.25355748
H      -0.92195473      0.48782111     -1.75812826
H       1.15773378      1.17292384      0.91173659
H       3.44936510      0.59672006      0.64201477
H       3.06017643     -0.81861816     -0.13640667
H       0.21605251     -1.84312421     -1.46861372
H      -1.75579919     -1.50542280      0.19355832
H      -2.53281058     -1.02680118     -1.16359222
