11
b3lypvtz=-210601.98723482
N      -2.58826675     -0.27179531     -0.00003817
C      -1.60116604      0.50880776      0.00003168
N      -0.22842249      0.18331109      0.00001812
C       0.82042442      1.07738059      0.00005581
N       1.96036693      0.45885694     -0.00002102
N       1.68785098     -0.90337976     -0.00000410
C       0.39697415     -1.04340545     -0.00003517
H      -2.32983038     -1.25731101     -0.00012232
H      -1.76224833      1.58397939      0.00012601
H       0.67874006      2.14527400     -0.00004610
H      -0.12734254     -1.98314923      0.00005726
