15
b3lypvtz=-216910.70962284
C       1.29027345      0.46632867     -0.77410214
C       0.07103365      0.12212200      0.05920421
C      -0.11994632      1.05598065      1.23061452
O       0.59525496      1.98589409      1.49851379
C      -1.27241495     -0.11827999     -0.68674758
O      -1.42097488     -1.43487546     -0.11890775
C      -0.11685955     -1.35998332      0.49077068
H       1.21980601      1.48147906     -1.16580813
H       1.39030479     -0.22362846     -1.61250223
H       2.19859783      0.41645293     -0.17281563
H      -1.00418425      0.82070640      1.86156522
H      -1.16489747     -0.14636119     -1.77447212
H      -2.10732980      0.53576104     -0.42292781
H      -0.15723699     -1.55975355      1.56456367
H       0.59857353     -2.04174288      0.02305129
