12
b3lypvtz=-200570.64660095
N       2.29758828     -0.15357992     -0.11815053
C       0.94198631     -0.06321439     -0.04577879
N       0.25167793     -1.21389056     -0.11938489
C      -1.07102030     -1.10080693     -0.08918987
C      -1.72309580      0.12101239      0.01488905
C      -0.90496155      1.24035470      0.09582511
N       0.42077221      1.17011419      0.06922392
H       2.71200559     -1.06156814     -0.01133064
H       2.83383948      0.65948708      0.12463645
H      -1.63065190     -2.02885607     -0.14789365
H      -2.79975003      0.19562290      0.03831417
H      -1.32829022      2.23532475      0.18893967
