16
b3lypvtz=-204457.2031464
C       1.40106581     -0.23714957     -0.35474553
C       0.43377557     -1.04917145      0.50838989
C      -1.00317806     -0.59089326      0.25659260
C      -1.12161767      0.90755513      0.52820441
N      -0.07713960      1.74877282     -0.06476250
C       1.01147608      1.21797066     -0.43728252
O      -1.42695031     -0.92509366     -1.07128420
H       2.42562853     -0.30739580      0.01881296
H       1.43876165     -0.63576469     -1.37506281
H       0.52573281     -2.11507542      0.29916887
H       0.66686291     -0.90223537      1.56677843
H      -1.68693228     -1.13080280      0.91391537
H      -2.08367378      1.26947640      0.15898539
H      -1.11926798      1.09623022      1.60614199
H       1.75261434      1.88758067     -0.87868323
H      -1.13715805     -0.23400391     -1.67516911
