16
b3lypvtz=-227787.04276099
C      -2.47055494     -0.61809927      0.42544212
C      -1.25908994      0.08805536     -0.13034651
O      -1.29738538      1.08127335     -0.81663128
O      -0.12366702     -0.53469390      0.23567337
C       1.16291658      0.02198572     -0.26420040
C       1.61151253      1.11621318      0.68345500
N       2.12333712     -1.02153854     -0.36641899
H      -2.49590194     -1.64993349      0.07401760
H      -3.37007723     -0.09649398      0.11236321
H      -2.41714509     -0.64734163      1.51414769
H       0.95247023      0.42442393     -1.25215755
H       0.85972460      1.90095336      0.73832009
H       1.77039637      0.70933503      1.68415552
H       2.54722843      1.54732212      0.32996398
H       2.31646617     -1.44515957      0.53283521
H       1.82907852     -1.74597966     -1.00808204
