15
b3lypvtz=-212135.12597429
C       1.92395901      0.51853895     -0.62016501
C       0.73756793     -0.05682656     -0.37496413
N      -0.36971782      0.70203020     -0.01976348
C      -1.48110584      0.17229476      0.32446669
N      -1.75007214     -1.17287613      0.57413360
N      -2.60752188      0.97656094      0.49803670
N       3.06798251     -0.12540504     -1.09985835
H       2.01628547      1.59171396     -0.51070599
H       0.65552754     -1.14067937     -0.49830528
H      -2.65308845     -1.48474847      0.24958282
H      -1.01188455     -1.81065712      0.32839443
H      -2.36520720      1.95478482      0.44626309
H      -3.14700821      0.75888462      1.32450710
H       3.93345666      0.24776436     -0.74014939
H       3.05082696     -1.13137991     -1.01297933
