15
b3lypvtz=-214497.30765915
C      -2.97932408     -0.84719221      0.00000164
C      -1.54173255     -0.42553283     -0.00000035
C      -1.16894963      0.85564700      0.00000138
N       0.12711783      1.37679253     -0.00000128
C       1.32870899      0.72002280      0.00000118
N       1.45297115     -0.55170971     -0.00000118
O       2.83723097     -0.88064416      0.00000069
H      -3.21481913     -1.45779936      0.87665264
H      -3.65477876      0.01029096      0.00000407
H      -3.21482231     -1.45779685     -0.87665026
H      -0.78588288     -1.19681872     -0.00000321
H      -1.91674854      1.64047504      0.00000383
H       0.19614014      2.37734461      0.00000879
H       2.20191593      1.36821741      0.00000412
H       2.81553787     -1.84167551     -0.00000106
