16
b3lypvtz=-181114.34796248
C      -3.07005504      0.01281595     -0.54623661
C      -1.99710206     -0.00247427     -0.00658810
C      -0.69171637     -0.02026297      0.62021234
C       0.35097153      1.07172370      0.22671535
C       1.45555751     -0.00484723      0.30065572
N       2.54546602      0.11590129     -0.64344271
C       0.34746826     -1.09383181      0.17268184
H      -4.01992499      0.02615625     -1.01905577
H      -0.80864141     -0.04718074      1.70562315
H       0.43608739      1.94670187      0.86870263
H       0.19451933      1.39834168     -0.80200847
H       1.88558905     -0.03133527      1.30398245
H       3.23189641     -0.61781193     -0.51413370
H       2.20821458      0.04974093     -1.59712813
H       0.19038965     -1.37048471     -0.87060175
H       0.42682614     -1.99720374      0.77681976
