16
b3lypvtz=-204455.39564301
C       2.04999248      0.98673686      0.00002701
C       1.17044331     -0.02583753     -0.00000412
C       1.65869666     -1.45446886     -0.00000952
C      -0.27298543      0.20411357     -0.00003741
N      -0.83547504      1.53356247      0.00002181
C      -1.19203571     -0.78229135     -0.00011403
O      -2.51645225     -0.54580426     -0.00013739
H       1.73986031      2.02237937      0.00003053
H       3.11490471      0.80023343      0.00007222
H       1.30411039     -1.99710832     -0.87946974
H       2.74655143     -1.48831872      0.00009328
H       1.30394057     -1.99718811      0.87933277
H      -0.54218969      2.06085998      0.81501038
H      -0.54235510      2.06086183     -0.81502663
H      -0.94865323     -1.83369196     -0.00020618
H      -2.58843041      0.42894860     -0.00004698
