17
b3lypvtz=-217699.83874882
C      -2.33884633     -0.95625038     -0.19181038
C      -0.92621204     -0.58227535     -0.57796778
O      -0.24712394     -1.31243530     -1.26854076
C      -0.42198407      0.75886540     -0.06672025
C       1.06970449      1.00872387     -0.28229380
C       1.96316783      0.33104349      0.75575821
O       1.68163504     -1.04944870      0.94049384
H      -2.35587742     -1.21629671      0.86989035
H      -2.67109825     -1.81330562     -0.77210103
H      -3.02449089     -0.11797746     -0.32706713
H      -0.69472838      0.85139734      0.98923355
H      -1.01573488      1.51952737     -0.58667206
H       1.27050493      2.08269948     -0.25164798
H       1.34303085      0.66532067     -1.28249786
H       3.01434969      0.48337951      0.48044750
H       1.81559191      0.79420553      1.73476161
H       1.53801146     -1.44727315      0.07343398
