18
b3lypvtz=-205233.88302408
C       2.30120487      0.45532861      0.63348563
C       1.50893523     -0.00573347     -0.59775836
C       0.16363578     -0.61490256     -0.21819262
O       0.07930693     -1.82233208     -0.03869888
N      -0.91798239      0.21385481     -0.05991360
C      -0.91219651      1.65773728     -0.19219807
C      -2.19810549     -0.35967491      0.32508014
H       3.29795048      0.79093855      0.34475749
H       2.41305624     -0.36695527      1.34058026
H       1.80862646      1.27950546      1.15203773
H       1.40829659      0.80896485     -1.31542825
H       2.04991781     -0.80888987     -1.09475048
H      -1.62560861      1.97626073     -0.95875400
H       0.06794935      2.03055243     -0.46476519
H      -1.20501536      2.13057241      0.75076043
H      -2.96458487     -0.10613562     -0.41263059
H      -2.51748290      0.02885338      1.29668539
H      -2.09285864     -1.43741573      0.38550195
