16
b3lypvtz=-181128.40263729
C       3.89731349     -0.35270998      0.03878983
C       2.48682430     -0.00765510     -0.04780558
C       1.31527771      0.26750287     -0.11230874
C      -0.05315015      0.62926736     -0.22068274
C      -1.06827231     -0.01639785      0.36399782
C      -2.50236362      0.39329316      0.24452064
N      -3.32128950     -0.73940952     -0.20585841
H       4.23331851     -0.38076503      1.07772635
H       4.51448310      0.37469729     -0.49224941
H       4.08951826     -1.33538687     -0.39793494
H      -0.26905202      1.50504030     -0.82786252
H      -0.87494620     -0.90106812      0.96060840
H      -2.87269252      0.68044504      1.23455362
H      -2.57500481      1.28616297     -0.39186963
H      -4.30466591     -0.49750263     -0.18656046
H      -3.09103533     -0.97886790     -1.16323523
