17
b3lypvtz=-217673.24090636
C      -2.26866540     -0.88762053      0.07479731
O      -0.87524730     -0.67443478      0.24403300
C      -0.37759341      0.44467488     -0.44674722
O      -0.89709383      1.65825823      0.06631997
C       1.13092592      0.42194151     -0.39215243
C       1.90762839     -0.86168070     -0.43949681
C       1.85661037     -0.06575675      0.83761525
H      -2.51424651     -1.05972782     -0.97947748
H      -2.52462871     -1.77569905      0.64881276
H      -2.84929409     -0.03781127      0.43910601
H      -0.72862981      0.42220846     -1.48550379
H      -0.49473679      1.80144642      0.93155846
H       1.56488741      1.27175241     -0.90301962
H       1.34098064     -1.78076133     -0.46537263
H       2.83006283     -0.87356759     -1.00327885
H       2.74269872      0.47043996      1.14743158
H       1.26080457     -0.47121407      1.64230148
