20
b3lypvtz=-182655.91136804
C       2.24449321      0.18442144      0.26139870
C       1.23787046     -0.74991120     -0.41000562
C      -0.22088964     -0.36971954     -0.19815472
N      -0.57856975      0.93600560     -0.71973593
C      -0.70839704      2.04073480      0.22129378
C      -1.23239831     -1.47389788     -0.33624401
C      -0.92103338     -0.91478618      1.02973228
H       2.07888477      0.24157849      1.33962003
H       2.17278558      1.19233279     -0.14784157
H       3.26562110     -0.16565759      0.10025614
H       1.42724532     -0.76799258     -1.48727941
H       1.39107394     -1.77021554     -0.04695224
H      -1.39316412      0.87551197     -1.31186601
H      -1.47309641      1.89513384      0.99768613
H      -0.96008005      2.94648260     -0.33211908
H       0.23981477      2.21960252      0.72702765
H      -0.87792771     -2.46602139     -0.58271707
H      -2.19490217     -1.22813534     -0.76664338
H      -1.67671223     -0.30434253      1.50365443
H      -0.34973733     -1.52597725      1.71578091
