9
b3lypvtz=-292159.43227362
O       1.52450647      0.59574616      0.89228736
C       1.47434796      0.06878652     -0.18571303
C       0.15826197     -0.40966190     -0.80285414
O       0.16393669     -1.17221521     -1.72932763
C      -1.13293255      0.12074833     -0.14988517
F      -2.20638474     -0.49016260     -0.68853043
F      -1.20101792      1.45667504     -0.43136409
H       2.36362122     -0.16359397     -0.79927576
H      -1.14443908     -0.00612237      0.93356289
