12
b3lypvtz=-202919.27981034
C       2.76320840     -0.14624103      0.00010155
C       1.45679548     -0.35176328      0.00006661
O       0.58321292      0.71174170     -0.00012868
C      -0.76941983      0.53389098      0.00000881
C      -1.58814230      1.58611853      0.00013029
C      -1.28844142     -0.80511191     -0.00002293
N      -1.70588082     -1.87929257     -0.00004179
H       3.43170722     -0.99279906      0.00022798
H       3.18353257      0.84904790     -0.00000202
H       1.00287668     -1.33386533      0.00016032
H      -2.65596673      1.44129273      0.00018938
H      -1.18833416      2.58916034      0.00015348
