9
b3lypvtz=-238146.1156355
F       1.15321945     -0.08137887     -0.06820068
C       2.48300780     -0.02646531     -0.06561305
C       3.12050876      1.21559236     -0.06389155
N       4.43743134      1.25150667     -0.06135250
C       5.04484046      0.05617534     -0.06067574
N       4.45481633     -1.13032795     -0.06226127
N       3.12078448     -1.16556577     -0.06483848
H       2.56093564      2.14375783     -0.06458574
H       6.12675574      0.04620569     -0.05858100
