19
b3lypvtz=-171855.7170919
C       2.51035656      0.06882852      0.04953744
C       1.00838852      0.08512959      0.00531264
C       0.31008848      1.21732911     -0.08827806
C      -1.19311111      1.29483438     -0.10218971
C      -1.84795244     -0.01651549      0.34244467
C      -1.15300001     -1.21451907     -0.30529022
C       0.32831075     -1.26274725      0.08078898
H       2.92363324     -0.49161584     -0.79482037
H       2.87090687     -0.42699754      0.95653178
H       2.92652201      1.07601165      0.02642018
H       0.84624436      2.15928949     -0.15780136
H      -1.52238271      2.11646252      0.54092251
H      -1.53591470      1.56033777     -1.11031232
H      -1.77457867     -0.10556599      1.43084415
H      -2.91246273     -0.00949441      0.09857820
H      -1.23935993     -1.13327397     -1.39333189
H      -1.64525492     -2.14714819     -0.02109386
H       0.43932792     -1.65897778      1.09831577
H       0.86056652     -1.97038451     -0.56325753
