13
b3lypvtz=-213769.59790545
C      -1.35465845     -0.90829517      0.15096534
C       0.13887215     -0.98303953      0.12701839
C       0.83571403      0.12172789     -0.18310948
N       0.20561720      1.37213781     -0.36033633
C      -1.01774003      1.44062305     -0.02160891
O      -1.81740705      0.45217743      0.39495091
N       2.20370090      0.20033034     -0.37269139
H      -1.82131011     -1.22606752     -0.79165220
H      -1.78726593     -1.50827632      0.95123622
H       0.61436552     -1.93710614      0.30741394
H      -1.53498944      2.39456335     -0.01189763
H       2.75413577     -0.54086232      0.02846775
H       2.58096543      1.12208713     -0.21875658
