14
b3lypvtz=-226989.86535537
C       2.29221601     -0.70469944      0.07565770
N       0.91710266     -1.03195126     -0.30195258
C      -0.11958103     -0.19789327      0.29725341
C      -0.13254165      1.19963879     -0.31016275
O       0.32481254      2.17208653      0.23061697
C      -1.46633944     -0.89357720      0.17689638
O      -2.49554796     -0.32114548     -0.06809145
H       2.96776976     -1.38093535     -0.44708322
H       2.41659526     -0.87045099      1.14656308
H       2.59164154      0.32668442     -0.14341095
H       0.81623504     -1.06214562     -1.30996977
H       0.09814683     -0.09998585      1.36650951
H      -0.51991570      1.24685931     -1.34878309
H      -1.42074887     -1.99006760      0.32919575
