13
b3lypvtz=-237108.28914986
C      -2.02778021      0.65732520      0.03108798
N      -0.59094017      0.43243115     -0.03776362
C      -0.06687394     -0.74198029      0.41133582
O      -0.71596208     -1.61904405      0.94233395
N       1.32525052     -0.90467483      0.24048403
C       2.29861280      0.03773682      0.01115010
O       3.47689510     -0.21610275     -0.04178523
H      -2.38909672      0.37473059      1.01640485
H      -2.22339015      1.71560584     -0.13009895
H      -2.57381421      0.07234897     -0.71265144
H      -0.07222221      0.96390334     -0.71465022
H       1.65202027     -1.83320915      0.47213314
H       1.90730101      1.06092915     -0.10565828
