19
b3lypvtz=-192726.40038525
C      -2.81501920     -0.17089918      0.01398263
C      -1.41062646     -0.73814203     -0.18872517
C      -0.28807601      0.13417507      0.39758349
N      -0.16182529      1.46423426     -0.21232864
C       1.04470640     -0.60294101      0.35083227
C       2.00959981     -0.42283108     -0.75711812
N       2.29758963      0.11626350      0.58435976
H      -2.92835146      0.80492104     -0.46185185
H      -3.04216250     -0.05132760      1.07605630
H      -3.57122347     -0.83141732     -0.41230482
H      -1.21587950     -0.88062113     -1.25716687
H      -1.35314497     -1.73203170      0.26472617
H      -0.51229657      0.30634312      1.45661267
H      -0.83842666      2.10924557      0.17138988
H      -0.32004775      1.42521372     -1.21256055
H       1.01028352     -1.57633663      0.83020288
H       2.63654442     -1.24906154     -1.06845032
H       1.76876612      0.28515617     -1.54090973
H       2.07881695      1.11051877      0.56653403
