17
b3lypvtz=-217713.68126896
C      -2.34438762     -0.76638606     -0.56359454
C      -1.82185586      0.05192520      0.60165431
O      -0.40465233     -0.16206184      0.80713785
C       0.44319589      0.59910183      0.08071712
O       0.08505435      1.44714349     -0.69885922
C       1.88152760      0.22392826      0.35168541
C       2.29789880     -1.02023123     -0.44624364
H      -2.14023610     -1.82744623     -0.41677428
H      -1.88746457     -0.44353160     -1.49809207
H      -3.42476230     -0.63580974     -0.65001878
H      -2.27933235     -0.25572948      1.54020089
H      -1.99589216      1.11490823      0.44523503
H       2.00773588      0.03891730      1.41886408
H       2.49528891      1.07743109      0.06888099
H       3.34617300     -1.25500447     -0.26073354
H       1.70089937     -1.88604598     -0.16028598
H       2.17363149     -0.85506176     -1.51716262
