13
b3lypvtz=-239465.68749315
C      -2.48376879      0.56294978     -0.67743259
O      -1.09504274      0.64725909     -0.37956703
C      -0.47649727     -0.53590563     -0.16158985
C       0.82761600     -0.65067034      0.07039777
O       1.63579385      0.47565203      0.09138933
C       2.95292295      0.30299881      0.32945722
O       3.50700715     -0.73990908      0.52784059
H      -2.65573244      0.00573452     -1.60254413
H      -2.83647183      1.58325870     -0.80275922
H      -3.03472255      0.08932824      0.14012739
H      -1.08854075     -1.43048680     -0.17215025
H       1.31002010     -1.59583616      0.25148308
H       3.43741632      1.28562685      0.31072893
