13
b3lypvtz=-190409.72603257
C       2.90703154      0.64532156     -0.65396145
C       1.85932479      0.12276660     -0.38243348
C       0.60114902     -0.50168698     -0.06809078
N       0.49136293     -1.57799762      0.60584674
C      -0.61892739      0.20531085     -0.57467479
C      -1.97689056     -0.25248662     -0.21566526
N      -1.40760187      0.92521040      0.45192467
H       3.83749230      1.10195905     -0.88513107
H       1.40567826     -1.91497554      0.90545111
H      -0.48287987      0.70216721     -1.52808720
H      -2.07225853     -1.12389853      0.41616879
H      -2.76161111     -0.11117729     -0.94932278
H      -1.78186952      1.77958690      0.05157551
