18
b3lypvtz=-181910.06535435
C       2.23745749     -0.51565997     -0.58769695
C       1.23354404     -0.12415546      0.50742134
C       0.69257547      1.28017718      0.31477815
C      -0.55272062      1.20472588     -0.16173290
N      -1.01387044     -0.10611253     -0.30722236
C      -2.42328782     -0.38971737     -0.14495292
C      -0.07622903     -0.94817419      0.45118918
H       2.59279371     -1.53965217     -0.44817494
H       1.77825041     -0.44297675     -1.57505656
H       3.10636780      0.14472671     -0.57263153
H       1.71610682     -0.25267742      1.47905037
H       1.27840097      2.18052312      0.40890872
H      -1.19120741      2.01810476     -0.47722214
H      -3.01214955      0.30703808     -0.74186186
H      -2.64143655     -1.39853956     -0.49816035
H      -2.75536524     -0.31604702      0.90313165
H       0.04892449     -1.92348955     -0.02275251
H      -0.46761253     -1.10816473      1.46702264
