14
b3lypvtz=-257906.22035022
C      -2.65643536     -0.47830435     -0.34145220
C      -1.52216610     -0.26241014      0.31273143
C      -0.30201581      0.39187638     -0.28837092
N       0.08385916      1.64932376      0.35358802
C       0.88147577     -0.56928190     -0.26000705
F       1.28188362     -0.77960573      1.03957119
F       1.95023360     -0.06016228     -0.92986260
H      -2.76715868     -0.21535109     -1.38741418
H      -3.51709654     -0.92145410      0.14188456
H      -1.44028856     -0.53137754      1.36188651
H      -0.49474102      0.59434976     -1.34549981
H       0.36813046      1.48346215      1.31234244
H      -0.70848827      2.27887481      0.37807196
H       0.63919273     -1.54207771     -0.69122633
