16
b3lypvtz=-202055.73188228
C       2.65091643     -0.83386208      0.21924450
C       1.60286997     -0.03284950     -0.02377667
N       1.65982516      1.36472936     -0.02034634
N       0.32709825     -0.53918666     -0.27802346
C      -0.87461019      0.07234886      0.00944906
N      -1.97437321     -0.53434390     -0.15103413
C      -3.19166898      0.17870438      0.16917314
H       2.51912784     -1.89490436      0.36657499
H       3.65035339     -0.43199899      0.28516175
H       2.58893403      1.71697913      0.15080006
H       1.24889155      1.79625081     -0.83783637
H       0.26320032     -1.52069094     -0.49810321
H      -0.77974071      1.09732669      0.37519300
H      -3.02322448      1.20594227      0.52313150
H      -3.74530476     -0.36155534      0.94131925
H      -3.83869362      0.22148528     -0.71089106
