15
b3lypvtz=-214496.72296465
C       2.98530605     -0.35114809     -0.00048167
O       1.74232169      0.34929445     -0.00000263
C       0.63854557     -0.41492917      0.00008443
C      -0.60747407      0.09695842      0.00001266
C      -0.94132161      1.55373698     -0.00027203
N      -1.59623634     -0.89625334      0.00022533
N      -2.77303692     -0.46537344      0.00026940
H       3.08089396     -0.97332324     -0.89329792
H       3.08161156     -0.97332843      0.89226547
H       3.76598773      0.40443339     -0.00078673
H       0.77256202     -1.49127906      0.00025728
H      -0.03583587      2.15607756     -0.00197515
H      -1.54285207      1.80880344      0.87409965
H      -1.54558364      1.80773610     -0.87304723
H      -3.38098705     -1.29327657      0.00042113
