12
b3lypvtz=-226181.43658565736
C      -2.33542110     -0.45970300     -0.55025057
C      -1.33714717      0.23941140     -0.00396180
C       0.04721808     -0.16588415     -0.09776469
C       1.05581036      0.51956027      0.44246865
N       2.43041457      0.06344082      0.31570441
O       2.66417248     -0.96894533     -0.29869197
O       3.27723552      0.77050450      0.85101437
H      -2.14954982     -1.37601727     -1.09662903
H      -3.36376276     -0.13693134     -0.46705876
H      -1.55338921      1.15386030      0.53773648
H       0.28430566     -1.07620094     -0.63573954
H       0.98011340      1.43690475      1.00317242
