14
b3lypvtz=-180353.64454503
C      -2.66694248     -0.75099925     -0.50724905
C      -1.85502536     -0.01687570     -0.01782428
C      -0.85095806      0.86791267      0.56916588
C       0.56467795      0.54922856      0.12065997
C       1.32480039      1.45120715     -0.49661746
C       1.06776133     -0.80432240      0.47275405
N       1.96004458     -1.49000295     -0.11202079
H      -3.38645459     -1.40037013     -0.93971806
H      -0.90582776      0.78499720      1.66083801
H      -1.08793974      1.90531430      0.32591345
H       2.35381518      1.24038997     -0.75836364
H       0.94975329      2.43426837     -0.74842350
H       0.59466249     -1.25715434      1.34756279
H       2.31190677     -1.00293244     -0.93975537
