9
b3lypvtz=-212212.21893308
C       2.86809733      0.03747522      0.00000172
C       1.67041297     -0.02209776      0.00000106
C       0.26346201     -0.09799786      0.00000233
N      -0.49154008     -1.15189261     -0.00004416
N      -1.80442660     -0.69064231      0.00004800
C      -1.73222973      0.59365863      0.00000741
O      -0.46376166      1.06155218      0.00004176
H       3.92906954      0.08495671      0.00000081
H      -2.53627878      1.30864679     -0.00004695
