18
b3lypvtz=-181915.19779826
C      -3.06715288     -0.41018817     -0.00140354
C      -1.61046736     -0.75432948      0.00234121
C      -0.54545858      0.06883789      0.00294124
C      -0.65863659      1.57203602     -0.00051805
C       0.79641972     -0.50338276      0.01065247
C       1.94870541      0.18605061      0.00468771
N       3.22318075     -0.36490896     -0.07986834
H      -3.56685993     -0.83839200     -0.87635758
H      -3.57043087     -0.83215974      0.87461044
H      -3.25982839      0.66087324     -0.00563419
H      -1.40095648     -1.82098065      0.00401258
H      -0.16673864      2.00155129      0.87641418
H      -1.69041692      1.91184361      0.00091350
H      -0.16957062      1.99737344     -0.88087792
H       0.84902567     -1.58929136      0.01262163
H       1.94800688      1.26875480      0.00150633
H       3.95356777      0.16592919      0.36703023
H       3.28499307     -1.34788398      0.13884910
