16
b3lypvtz=-202028.57817938
C      -3.37391047      0.44787119      0.47305270
C      -2.39836918     -0.47031543     -0.27676051
C      -1.04351454      0.13779714     -0.45278013
C       0.09471353     -0.38930139      0.00228674
N       1.31605221      0.25841051     -0.20641125
N       2.28864088     -0.35877793      0.28254467
N       3.47429577      0.22627767      0.02163665
H      -3.01700403      0.65545330      1.48278702
H      -3.48822082      1.40368147     -0.04199442
H      -4.36108535     -0.01081005      0.54854061
H      -2.30993783     -1.42502022      0.24690466
H      -2.82047296     -0.69515851     -1.26281869
H      -0.98412767      1.08202361     -0.98565518
H       0.12240116     -1.33161675      0.54494095
H       4.18283143     -0.02358428      0.69108447
H       3.42763886      1.20069166     -0.26137627
