10
b3lypvtz=-274659.75956776
C      -1.43896753     -0.80986762      0.06790457
N      -0.78351983     -0.15820669     -0.76980490
C       0.27258891      0.65346189     -0.39658491
N       1.26523168      0.40254353      0.37101144
O       1.13210770     -0.83835431      1.04229046
O       0.25484418      1.83458264     -1.04768676
F      -2.38993603     -1.63839835     -0.35516539
H      -1.36731388     -0.80437950      1.15006068
H       2.01452329     -0.96605227      1.40279699
H       1.04044151      2.32467067     -0.76801976
