14
b3lypvtz=-201309.32943712
C      -2.21125859      0.56341588     -0.06895543
C      -0.80309863      0.07218076     -0.02636835
C       0.39688524      0.73776052     -0.16350142
C       1.39125252     -0.26476247     -0.03503740
N       2.77047017     -0.10904751     -0.16833168
N       0.85737727     -1.45953933      0.17090397
N      -0.48446475     -1.22881245      0.16235147
H      -1.10965316     -2.00177078      0.29916519
H      -2.22717613      1.64029924     -0.22505525
H      -2.77512386      0.09991652     -0.88200964
H      -2.74054536      0.35302437      0.86352730
H       0.53517249      1.78929026     -0.34677847
H       3.27377769     -0.92228560      0.15649560
H       3.12638513      0.73033059      0.26349411
