17
b3lypvtz=-194368.98831059
C      -3.24787112      0.54823741     -0.19341697
C      -2.23057918     -0.55587338     -0.07230202
C      -0.99154609     -0.39782033      0.29839665
C       0.25048550     -0.23057675      0.65810159
C       1.39088400      0.03379386     -0.30009248
C       2.12386734      1.32806332      0.01773474
O       2.36682876     -1.01287588     -0.21526183
H      -3.63601646      0.60770633     -1.21324225
H      -4.10071268      0.36152633      0.46393536
H      -2.81780943      1.51364669      0.06765041
H      -2.57104721     -1.56093615     -0.31036364
H       0.52418962     -0.29518786      1.70894355
H       0.98682945      0.08500555     -1.31702541
H       2.96421775      1.45588175     -0.66497610
H       2.51124090      1.30348638      1.03744171
H       1.45464326      2.18251288     -0.08238001
H       1.91760761     -1.85100016     -0.36455630
