12
b3lypvtz=-223779.2804326
C       2.92742884      0.41704550     -0.35050258
C       1.62257519      0.30988505     -0.53263965
O       0.81679422     -0.21733136      0.45436135
N      -0.51682102     -0.23278826      0.05756120
N      -1.19817007     -0.74861142      0.93341239
C      -2.60143258     -0.72919037      0.64502650
N      -3.29669633      0.25670618      0.28384419
H       3.54052261      0.83341238     -1.13450959
H       3.40238319      0.09871164      0.56616375
H       1.08995465      0.61017890     -1.42425514
H      -3.06708295     -1.68590156      0.86751233
H      -2.71945575      1.08788333      0.14275713
