13
b3lypvtz=-237037.3648225437
C      -1.08585265     -0.30228578      0.09114944
C      -0.08029219      0.78025758     -0.29149479
C       1.34796332      0.31587256     -0.28459433
N       1.69685957     -0.82497428      0.21851944
N       1.99160225     -1.82844030      0.65465420
O      -0.27757323      1.93023839      0.54283930
O      -1.02620142     -1.33835994     -0.87965318
H      -2.07200263      0.16858154      0.12669829
H      -0.85685724     -0.67967697      1.09704790
H      -0.32630202      1.12792037     -1.29714598
H       2.14386054      0.90434644     -0.71339887
H       0.19002090      1.77840378      1.37138467
H      -1.64522520     -2.03188341     -0.63600609
