15
b3lypvtz=-214520.81598382
N       2.28042962     -1.32580042      0.33842889
C       1.56134711     -0.33029762      0.04203958
O       1.97112411      0.95885390      0.03931229
C       0.09978249     -0.49864568     -0.30475420
C      -0.93049043     -0.34008850      0.84952514
C      -1.70817989      0.59986706     -0.09692846
N      -0.49228547      0.70587245     -0.94787179
H       3.22221134     -1.03024950      0.59338692
H       1.21135867      1.47068511     -0.31093478
H      -0.03536239     -1.43045835     -0.85441669
H      -1.42911099     -1.24778717      1.17567985
H      -0.51114939      0.17275521      1.71246284
H      -2.54226277      0.09681630     -0.59290611
H      -2.05679336      1.55115162      0.30497030
H      -0.64061864      0.64732559     -1.94789378
