17
b3lypvtz=-215271.68268826
C      -2.26453418      0.51705527      0.76622834
N      -2.00189771     -0.66655320     -0.03835060
C      -0.89042638     -0.90731718     -0.58770857
C       0.42535347     -0.13794194     -0.63088998
O       0.30410999      1.28617085     -0.59470855
C       1.33663711     -0.53115565      0.52933475
N       2.67535393      0.01279744      0.31517913
H      -1.41020486      1.16536648      0.95503492
H      -2.68761697      0.18015278      1.71471191
H      -3.04924038      1.09698091      0.27346654
H      -0.82974508     -1.85379883     -1.13433824
H       0.93714620     -0.43271726     -1.55517130
H      -0.14501687      1.58008083     -1.39267342
H       1.40232544     -1.62061182      0.56573733
H       0.85536993     -0.20181663      1.46064207
H       2.62660589      1.02453762      0.29120278
H       3.28839948     -0.23971768      1.08037190
