14
b3lypvtz=-224586.07437071
C      -0.15618300      1.84307115      0.19709066
C       0.45668839      0.47394411      0.12967937
N      -0.26256335     -0.65399684      0.57556260
C      -1.44979638     -0.92788725      0.26805036
O      -2.21790879     -0.22208392     -0.60373695
N       1.68401477      0.35932083     -0.21635850
N       2.21278075     -0.90844269     -0.30554942
H       0.61594137      2.58323935      0.00040914
H      -0.58081503      2.02704628      1.18752915
H      -0.96050932      1.96148279     -0.52971155
H      -1.93621751     -1.79896067      0.70479448
H      -3.08615734     -0.63250814     -0.67937399
H       1.74063515     -1.58416942      0.29258023
H       3.20581030     -0.86437757     -0.13356656
