13
b3lypvtz=-242066.55985117
C      -2.16621269     -0.41593068     -0.16224325
C      -0.84827452     -0.44920064     -0.00470018
F      -0.25450153     -1.67574743      0.18116664
C       0.09027686      0.66258068      0.03012266
N      -0.52831285      1.94593296      0.00884002
C       1.43262817      0.53474835      0.01129140
O       2.18213872     -0.58460003     -0.12470659
H      -2.74545980     -1.32609417     -0.13672463
H      -2.65644343      0.52636279     -0.34201607
H      -1.02940716      2.14634622      0.86695909
H       0.13716287      2.68572125     -0.16502348
H       2.05521563      1.41884956      0.07078638
H       1.60314972     -1.35759884     -0.11650300
