14
b3lypvtz=-229583.74932863
C      -1.77806449      0.80010340      0.58895566
C      -0.76275298     -0.24459128      0.22320382
C      -1.06046724     -1.52731255      0.00667306
N       0.52695367      0.28146675      0.13663651
N       1.58333299     -0.48809005     -0.17835192
C       2.73148656      0.01621647     -0.24816132
F       2.97263208      1.33634457     -0.01610728
H      -1.80363738      1.60310065     -0.15313365
H      -1.54584622      1.25453574      1.55631745
H      -2.77021763      0.36062676      0.64879832
H      -0.30278555     -2.24937910     -0.25417048
H      -2.08276734     -1.86057535      0.09237614
H       0.67506650      1.26300847      0.31402164
H       3.61706704     -0.54545448     -0.49516191
