13
b3lypvtz=-213774.19054689
C      -2.08390293     -0.66986482     -0.00002678
C      -0.59999841     -0.47389063     -0.00001444
C       0.09640807      0.71797625     -0.00000272
O      -0.29257628      2.01622486     -0.00000202
N       1.41347752      0.42738511      0.00002551
H       2.17906556      1.07774080      0.00002051
N       1.64550539     -0.90951759     -0.00008940
C       0.43294934     -1.44167959      0.00007387
H      -2.56261669     -0.23468443      0.88244760
H      -2.32656318     -1.73220667      0.00000620
H      -2.56260474     -0.23474202     -0.88253708
H      -1.25403159      2.05646795     -0.00001892
H       0.32229395     -2.51528420      0.00009968
