15
b3lypvtz=-193588.14823335435
C      -2.49886482      0.59615453      0.33390287
C      -1.53492388     -0.31436776      0.29229647
C      -0.49103830     -0.42047478     -0.79100424
C       0.89827338     -0.27247627     -0.27702847
C       2.01252810     -1.00461741     -0.19219506
O       2.83576209     -0.08548037      0.44606474
C       1.67269792      0.82661533      0.42069381
H      -2.60611725      1.34596585     -0.44190001
H      -3.21913165      0.62354761      1.14094520
H      -1.45544826     -1.04706822      1.09036756
H      -0.57165122     -1.39763383     -1.27866103
H      -0.69854848      0.33062084     -1.56041015
H       2.37582337     -1.98641869     -0.45991313
H       1.90702584      1.71964369     -0.15867796
H       1.37361319      1.08598947      1.43551939
