12
b3lypvtz=-226230.3531015
N       1.99489368      0.91792606     -0.18984982
C       0.86980010      0.35768046     -0.06971982
C       0.46721008     -1.09686637     -0.01648495
O      -0.85877596     -1.11942586      0.51773162
C      -1.52264268      0.09573593      0.18075662
C      -0.43288709      1.14482436      0.03530743
O      -0.56610358      2.33602071     -0.01019381
H       2.75245986      0.23437018     -0.26128920
H       0.49003527     -1.53623944     -1.02399841
H       1.10788005     -1.69106476      0.63475164
H      -2.22885699      0.34915954      0.96992467
H      -2.07301274      0.00777919     -0.76683597
