16
b3lypvtz=-204465.0171642
C       2.35858540      0.02177777     -0.07589159
C       0.90688370      0.08011101      0.35237759
C       0.10739189      1.21658426     -0.26944867
C      -1.36152116      1.08192778      0.12985398
N      -1.87442268     -0.27665511     -0.02649799
C      -1.04452207     -1.22306082     -0.10063036
O       0.31003823     -1.19085500     -0.00990370
H       2.85436989     -0.84224165      0.36647922
H       2.43553847     -0.05552131     -1.16122390
H       2.88226665      0.92309613      0.24634453
H       0.84711765      0.15313523      1.44390960
H       0.20477143      1.16381442     -1.35736567
H       0.51717334      2.17712930      0.04953926
H      -1.98669532      1.74524455     -0.47059763
H      -1.50783043      1.38708755      1.17098392
H      -1.37902797     -2.24357713     -0.26190259
