12
b3lypvtz=-223799.66647093
N       2.92202569      0.29221644      0.48188008
C       2.19883153     -0.57931562     -0.05701446
O       0.85081295     -0.55801834     -0.33863501
C       0.18656898      0.62541940     -0.33024663
C      -1.13615921      0.71440115     -0.15464090
N      -1.91690742     -0.41278657      0.12054947
N      -3.13187431     -0.14429123      0.23470600
H       2.42180329      1.13093689      0.76957747
H       2.59708604     -1.53826040     -0.36917980
H       0.78041199      1.50799898     -0.53519215
H      -1.62789589      1.67864555     -0.22911325
H      -3.60825563     -1.03268624      0.43899517
