11
b3lypvtz=-236309.88084675
N      -1.88468442      1.38556963      0.00000364
C      -2.21735234      0.18783910     -0.00000565
O      -1.41336255     -0.98199468     -0.00001444
C      -0.08262190     -0.97324647     -0.00001234
N       0.65495690      0.06341174      0.00000319
C       2.04151456     -0.19181093      0.00000677
O       2.86745303      0.67482600      0.00001868
H      -0.87507103      1.52260379      0.00000617
H      -3.24526107     -0.15606289     -0.00001028
H       0.29486079     -1.99952327     -0.00001529
H       2.32149604     -1.26676902     -0.00000345
