13
b3lypvtz=-213746.3675361
C      -1.03727870      1.79160959     -0.48399079
N      -1.02772713      0.56938700     -0.83322361
C      -0.27220254     -0.44265246     -0.25525585
C      -0.65384233     -1.71168465     -0.57765409
O      -0.09064816     -2.80135137     -0.06156902
N       0.81084611     -0.40120594      0.62630873
C       1.53115970      0.60779760      0.90826367
H      -1.71022303      2.46445312     -1.00950904
H      -0.45702447      2.22468658      0.32891850
H      -1.45620041     -1.89984254     -1.27520433
H       0.59548892     -2.47069865      0.55168029
H       2.36630825      0.46592543      1.58910026
H       1.40134377      1.60347628      0.49213530
