14
b3lypvtz=-203642.83090815
C      -2.10690266     -1.40706653      0.00517733
C      -1.19972271     -0.62514561     -0.05317508
C      -0.10802024      0.31492823     -0.16392619
C       1.22772258     -0.23823520     -0.62167646
N       1.72857233     -1.21169848      0.34174725
C      -0.41352051      1.74227715     -0.36893309
O      -0.00503113      1.27625199      0.91439510
H      -2.90453734     -2.10411601      0.07080899
H       1.89497851      0.61764439     -0.78982348
H       1.08540309     -0.74072774     -1.58093143
H       2.56656865     -1.66142792     -0.00302154
H       1.96544827     -0.75204736      1.21290239
H      -1.45014798      2.05166148     -0.44207481
H       0.30593415      2.36452961     -0.89262897
