12
b3lypvtz=-249493.6314433311
C       1.88945326     -0.22877721      0.16873234
C       0.44996617     -0.58084043      0.00760739
C      -0.55167557      0.25808394      0.26021003
N      -1.95494499     -0.17621785      0.07123537
O      -2.19874257     -1.30174736     -0.31523584
O      -2.80228642      0.68117076      0.33411202
O      -0.45398893      1.52275399      0.68928188
H       2.02178364      0.79241888      0.51884502
H       2.41961131     -0.34295842     -0.78051236
H       2.37179520     -0.90585593      0.87865299
H       0.17812655     -1.56846397     -0.33303741
H      -1.36909764      1.85043359      0.77160931
