16
b3lypvtz=-232745.9375644
F       2.57611441     -1.00715116      0.06677817
C       2.38261754      0.37494890     -0.02425288
C       0.97125395      0.73354948      0.39033365
C      -0.09934581      0.12808148     -0.52197066
C      -1.49523943      0.48597001     -0.08441148
C      -2.29911994     -0.39564318      0.76657662
O      -2.56537212     -0.28701290     -0.63582251
H       3.12089212      0.84874635      0.62547906
H       2.58255398      0.66165037     -1.05984505
H       0.89390330      1.82597086      0.39259124
H       0.81550130      0.40627041      1.42182564
H       0.05077417      0.48053494     -1.54762288
H       0.00009482     -0.95801382     -0.54345701
H      -1.71153182      1.55227471     -0.04019857
H      -3.06127575      0.02171953      1.41687178
H      -1.88382871     -1.34715799      1.08469388
