19
b3lypvtz=-171829.60138379
C       3.32786192      0.43333853      0.10597186
C       1.98519082      0.02182662     -0.41621154
C       1.01204068     -0.52221222      0.30673739
C      -0.33596004     -0.93081202     -0.21485328
C      -1.48573440     -0.21577775      0.47302206
C      -1.92647921      1.14112218      0.00242501
C      -2.80951641     -0.06056830     -0.22312530
H       3.41983881      0.23393149      1.17428493
H       3.50559840      1.50029533     -0.05646951
H       4.13319153     -0.09850761     -0.40884822
H       1.81432777      0.18764571     -1.47773175
H       1.18079815     -0.68794695      1.36914892
H      -0.38460757     -0.74524478     -1.29146899
H      -0.46702469     -2.01120843     -0.07951988
H      -1.53439161     -0.38098842      1.54368962
H      -1.41703466      1.56248083     -0.85435368
H      -2.23302767      1.87162580      0.73844752
H      -3.71542352     -0.14848053      0.36103519
H      -2.89468530     -0.44215948     -1.23234936
