16
b3lypvtz=-181079.88586381
C      -2.45216638     -0.33747272      0.10261972
C      -2.52404551     -1.94162138      0.35814941
N      -1.19631068     -2.56606280      0.49734016
C      -0.27940620     -1.50508364      1.09200781
C      -0.22720500     -1.00826729     -0.33156992
C      -1.26218139     -0.25563895     -0.79184442
C      -0.35556087     -2.48156136     -0.77198492
H      -3.37555999      0.02358951     -0.35003979
H      -2.34711150      0.15502503      1.06710266
H      -3.05548871     -2.42005378     -0.46383758
H      -3.07467907     -2.13462738      1.27896150
H      -0.71085365     -0.90024521      1.88467960
H       0.63853149     -1.97796488      1.43584998
H      -1.46277862     -0.29906554     -1.85892012
H       0.51988949     -3.12021903     -0.65609205
H      -0.88567340     -2.69263056     -1.69762199
