18
b3lypvtz=-181892.96900934
C       2.39913496     -1.03800713     -0.26356652
C       1.56473995     -0.25494938      0.40738000
C       0.36604205      0.43355982     -0.18673615
N       0.50661205      1.88262396      0.02442716
C      -0.91986594     -0.02608687      0.47416923
C      -2.22529097      0.07565101     -0.27312293
C      -1.61300974     -1.27221082      0.00956470
H       3.24419175     -1.51358285      0.21691225
H       2.26527355     -1.23537310     -1.32120357
H       1.72839959     -0.06104278      1.46338544
H       0.31062038      0.15852355     -1.25133581
H       1.31209919      2.23727677     -0.47769326
H      -0.31144839      2.36656575     -0.32805796
H      -0.95945488      0.18748646      1.53578445
H      -3.11184735      0.36435428      0.27423303
H      -2.19742542      0.43276314     -1.29475311
H      -2.08256496     -1.90403748      0.75033011
H      -1.17707982     -1.81149532     -0.82088606
