16
b3lypvtz=-204442.65081892
C      -2.62453963     -0.17805966     -0.08640359
N      -1.34270705      0.38969833     -0.48223754
C      -0.26810353      0.19026005      0.49849070
C       0.85906274      1.17465424      0.29946099
C       1.90088310      0.53036628     -0.21812897
O       1.74810157     -0.81187296     -0.35955273
C       0.48308043     -1.14232172      0.27540697
H      -3.37695761      0.05869182     -0.83872532
H      -2.98784594      0.17384155      0.89228384
H      -2.54959946     -1.26656116     -0.03480873
H      -1.44037093      1.37687235     -0.68073389
H      -0.66957532      0.22560478      1.52232519
H       0.79483576      2.23483062      0.48259089
H       2.85534648      0.91383757     -0.54677229
H       0.71595179     -1.64194266      1.21775490
H      -0.05604339     -1.81882446     -0.38383940
