14
b3lypvtz=-226989.10666504
C      -1.70786684      1.38820519      0.06785426
C      -1.02039646      0.24930013     -0.00266813
N      -1.54015721     -1.02546175     -0.23656516
O       0.34578545      0.25431788      0.14423042
C       1.10504297     -0.21191248     -0.96962702
C       2.55684684     -0.27143138     -0.55322530
O       3.44520306     -0.55829233     -1.31028929
H      -2.78758466      1.38893450      0.07288111
H      -1.18741448      2.33041802      0.12566915
H      -2.54711336     -1.04888989     -0.28940924
H      -1.18862839     -1.72575966      0.40355122
H       1.00140717      0.46830531     -1.82210987
H       0.78334265     -1.20541240     -1.29359415
H       2.74163326     -0.03222115      0.51340199
