16
b3lypvtz=-204451.23715655
C       1.35339226      1.56066472     -0.18246516
C       0.72982550      0.43887297      0.18017629
C       1.49409093     -0.84306303      0.17656746
O       2.62750032     -0.98231685     -0.21650900
C      -0.71336787      0.37354860      0.60284238
C      -1.63075310     -0.18266091     -0.49353488
N      -3.01400964     -0.23810399     -0.01872416
H       0.85070229      2.51915219     -0.18091198
H       2.39205855      1.53225834     -0.48453235
H       0.93820375     -1.71133021      0.58894910
H      -0.80284586     -0.26549664      1.48935572
H      -1.07349578      1.36097911      0.89145549
H      -1.59471514      0.48982090     -1.35314388
H      -1.24025175     -1.15161283     -0.83894244
H      -3.63775226     -0.50633856     -0.77032245
H      -3.11418719     -0.94099081      0.70510885
