16
b3lypvtz=-227785.44749385
C       2.67631445     -0.23945548      0.04470492
C       1.25141750     -0.58171430     -0.38499322
C       0.18570059      0.21606914      0.36357702
O       0.26646328      1.62321343      0.11187966
C      -1.22032818     -0.35205393      0.10157011
N      -2.15994331      0.57352272     -0.21666874
O      -1.44577929     -1.54554796      0.18826953
H       2.83404550     -0.48246283      1.09748423
H       2.89216977      0.82191906     -0.08413535
H       3.40425210     -0.80400365     -0.53898629
H       1.04132692     -1.63914390     -0.22685751
H       1.12501025     -0.40366233     -1.46019087
H       0.34988122      0.10921098      1.43969333
H       0.47179134      1.74966027     -0.82097186
H      -1.93944568      1.54975447     -0.12326330
H      -3.11830745      0.27572632     -0.28031266
