13
b3lypvtz=-234608.84382129
C      -2.47692526      0.23948649     -0.93645757
N      -1.04533978      0.12079374     -0.76983899
N      -0.49763841      0.64167492      0.30915723
C       0.71553848      0.33473050      0.64658839
N       1.42208974     -0.61356775     -0.08868014
N       2.58498107     -0.93736195      0.13186064
O       3.18341963     -0.21650223      1.22375840
H      -2.78666408      1.22488473     -0.59470281
H      -2.72409460      0.13617111     -1.99270701
H      -3.03132919     -0.51665506     -0.36969040
H      -0.55075589     -0.63528674     -1.23096605
H       1.14000070      0.82284306      1.50758031
H       4.06671761     -0.60121083      1.24277273
