16
b3lypvtz=-181128.47153156
C       3.16682979      0.43438709     -0.14878338
N       2.22160156     -0.41065748     -0.08213756
C       0.92557587      0.05703255      0.14442034
C      -0.10292433     -0.79166847      0.22368475
C      -1.52235521     -0.44131903      0.43098568
C      -2.06502632      0.95031378      0.26092317
C      -2.41399810     -0.10363394     -0.75209798
H       4.18116772      0.08641694     -0.32045971
H       3.01632972      1.51525529     -0.04083697
H       0.78477720      1.13307627      0.26035722
H       0.12472642     -1.84789651      0.11993712
H      -2.01115956     -1.04397565      1.18867109
H      -1.38757495      1.73421607     -0.04541636
H      -2.83422323      1.27529287      0.94757447
H      -1.94024319     -0.04293215     -1.72186661
H      -3.41794038     -0.50490164     -0.76118729
