14
b3lypvtz=-201248.8239696321
C      -0.78001625     -1.12756504      0.24943668
C       0.21270505     -0.02864332     -0.22605554
C      -0.98550811      0.94705192     -0.04837732
N      -1.89568252     -0.22035727     -0.10683509
C       1.47557503      0.20423724      0.52648574
N       2.62046115      0.23089117     -0.07718895
N       3.61779849      0.25185640     -0.61971846
H      -0.77037334     -2.08130441     -0.28059758
H      -0.67712134     -1.31557867      1.32511665
H       0.43349166     -0.15870127     -1.28465794
H      -1.14488636      1.69853278     -0.82331741
H      -0.95032375      1.44332545      0.92911584
H      -2.66721499     -0.20265441      0.54804579
H       1.51109527      0.35890941      1.59459439
