14
b3lypvtz=-203682.95265909
C       2.58873850     -0.35391596      0.19911169
C       1.35757264     -0.54075553     -0.26644352
C       0.25093352      0.43320701     -0.08094220
N       0.39375989      1.69975153     -0.02217622
C      -1.13125762     -0.12928199      0.02693474
C      -2.23222760      0.62030141      0.03549197
O      -1.12708211     -1.49858593      0.10985254
H       3.37037924     -1.08158394      0.02915571
H       2.85440691      0.51878386      0.78413614
H       1.11247587     -1.45715648     -0.78692241
H       1.37057302      1.95673079     -0.15758905
H      -3.21776985      0.18108140      0.12090461
H      -2.14456557      1.69187140     -0.03634137
H      -2.03553982     -1.81228558      0.16790935
