12
b3lypvtz=-226239.59747067
C      -2.26264199     -0.03171860      0.00031524
C      -0.82565938     -0.46717194      0.00022326
O      -0.47868929     -1.62683369      0.00021051
C       0.22199471      0.67668447      0.00014557
O      -0.16613417      1.82383418      0.00022489
C       1.70186565      0.39588693     -0.00003554
N       2.29313767     -0.72319000     -0.00017615
H      -2.46631170      0.59170501      0.87253874
H      -2.90413071     -0.90839526      0.00036569
H      -2.46642715      0.59168705     -0.87189461
H       2.28597595      1.31846211     -0.00005954
H       1.61590641     -1.48789425     -0.00013106
