18
b3lypvtz=-205217.48319575
C      -1.64362002     -0.83607651     -1.01506764
C      -0.87016305     -0.02479927      0.02815942
C      -1.03548808      1.47452266     -0.23835456
O      -1.51764243     -0.35056991      1.28404815
C       0.56627593     -0.47985439      0.09376693
C       1.65367603      0.27652768     -0.07954508
N       2.96980998     -0.17421658     -0.10432707
H      -1.54133436     -1.90242720     -0.81341547
H      -2.70379679     -0.58164003     -0.97521573
H      -1.26815054     -0.63281651     -2.01793519
H      -0.53525537      2.06921366      0.52837462
H      -0.63543328      1.76094194     -1.21225089
H      -2.09577008      1.72399128     -0.21494291
H      -0.94939938     -0.02669692      1.99084882
H       0.68870952     -1.54063986      0.29917251
H       1.56311522      1.33535492     -0.28945658
H       3.65895717      0.48881806      0.21232388
H       3.12092054     -1.09183603      0.28672178
