12
b3lypvtz=-221382.0672407
C       2.69136493      0.03059449     -0.47385848
N       2.10742632      1.00455521      0.10274621
N       0.75974299      0.98851829      0.26278418
N      -0.03286594      0.01541809     -0.14295456
N      -1.24803678      0.22556655      0.11624658
C      -2.06882764     -0.82975445     -0.32837897
N      -3.32463776     -0.84196844     -0.17932836
H       3.76610430      0.10915642     -0.56743463
H       2.18253726     -0.84499583     -0.86331910
H       0.35242925      1.79159871      0.72833638
H      -1.55976095     -1.65924973     -0.82088099
H      -3.62537597      0.01036069      0.29904174
