16
b3lypvtz=-202049.40497409
C      -1.93815726     -0.67119894      0.37020757
C      -0.69066960     -0.35994696     -0.42844266
C       0.67099355     -0.19627956      0.31635013
C       0.79805329      1.12476063     -0.46069693
N       1.78472172      1.88728711     -0.66474656
N      -0.53050442      1.04921726     -0.86664813
N       1.64597382     -1.24970569      0.15961168
H      -1.88037920     -1.68236754      0.77772717
H      -2.83413761     -0.61302856     -0.25140981
H      -2.05198063      0.03260132      1.19607665
H      -0.57572884     -1.06574334     -1.25733852
H       0.51293001     -0.01490300      1.38016864
H       1.55878966      2.65411562     -1.29798754
H      -0.90852897      1.45128980     -1.71244914
H       1.98239476     -1.28367305     -0.79650829
H       2.45622969     -1.06242511      0.73809791
