12
b3lypvtz=-308764.62729771
C      -2.35112156      0.43732350     -0.08521906
O      -1.51915354     -0.65585658      0.28694642
C      -0.36233358     -0.82605887     -0.48102167
C       0.81523387      0.01741449     -0.00547011
F       1.10980637     -0.20620676      1.28403859
F       0.59008934      1.34262935     -0.14161219
F       1.91121096     -0.27954110     -0.73621204
H      -2.58481125      0.40463487     -1.15512681
H      -1.89572528      1.40090828      0.15137232
H      -3.27247462      0.32786318      0.48243728
H      -0.05588974     -1.86871694     -0.39128161
H      -0.52475698     -0.59749242     -1.54047412
