13
b3lypvtz=-213780.8578727
C      -0.22915237      1.84863181     -0.02368801
N      -0.50384081      0.43136249      0.12856666
C      -1.66859627     -0.13978144     -0.30010394
O      -1.95447248     -1.31191329     -0.18989027
C       0.48948552     -0.40903753      0.77137445
C       1.74722604     -0.47041761      0.01629092
N       2.73529914     -0.49228753     -0.57164479
H      -1.06773429      2.32115476     -0.53167336
H      -0.09811896      2.32903343      0.94935559
H       0.67223608      2.01187807     -0.61749244
H      -2.34208654      0.59917430     -0.76414941
H       0.71006062     -0.04510365      1.77927444
H       0.06367732     -1.40974980      0.85123416
