20
b3lypvtz=-205980.33323526
C       2.11471822     -0.86491884     -0.02302910
C       1.00648840     -0.21844462      0.80648581
C      -0.12528018      0.47401655      0.01986993
C       0.40464522      1.62906542     -0.83945300
N      -1.11496081      0.92844150      1.02321964
C      -0.88935976     -0.52413200     -0.87222896
O      -1.47473635     -1.57007466     -0.12261550
H       1.72922708     -1.66747521     -0.65254220
H       2.62609672     -0.14615862     -0.66499157
H       2.86618395     -1.30385416      0.63474853
H       1.44938459      0.52774046      1.47549433
H       0.54947374     -0.97696956      1.44321311
H      -0.42011326      2.15773034     -1.32290234
H       1.07609391      1.28070306     -1.62622035
H       0.95022750      2.34858501     -0.22524265
H      -0.65716156      1.39297285      1.79882727
H      -1.75623333      1.59921808      0.61312680
H      -0.22269523     -0.98016460     -1.60435601
H      -1.65647648      0.03090677     -1.43269415
H      -1.84451838     -1.13660678      0.66085641
