15
b3lypvtz=-237841.10884498
C      -2.14687159     -0.84040893     -0.04779834
N      -1.22477083      0.17048608     -0.55414719
C      -0.32992762      0.74674416      0.38697019
N       0.49715162      1.80775644     -0.10406872
O       0.56415677     -0.27009185      1.04539878
C       1.44027890     -0.91008655      0.28416732
O       1.61500208     -0.76248826     -0.90159821
H      -2.84434347     -1.11379139     -0.83853904
H      -2.72667699     -0.42044429      0.77613641
H      -1.65795689     -1.75251928      0.31427783
H      -0.72436575     -0.14736319     -1.37416265
H      -0.90045884      1.09656180      1.24522541
H      -0.07521704      2.61853960     -0.30132187
H       0.97040999      1.52796548     -0.95482525
H       2.00626067     -1.62685383      0.89590333
