17
b3lypvtz=-191965.01414337
C      -3.22344731      0.46378147      0.16809977
N      -2.21674548      0.04085663     -0.47785563
N      -1.10314683     -0.19228908      0.35950178
C      -0.10659268     -0.64760983     -0.28862835
C       1.18574914     -0.97729521      0.38015163
C       2.38430692     -0.21706100     -0.21716520
C       2.33791829      1.29013493      0.03069446
H      -3.20115373      0.61783727      1.24644717
H      -4.13129546      0.67476076     -0.38559562
H      -0.18779169     -0.80467068     -1.36767262
H       1.09342046     -0.77587563      1.44838406
H       1.36097089     -2.05253079      0.26187041
H       3.29958572     -0.63141538      0.21160343
H       2.43588277     -0.41420267     -1.29213603
H       1.45117608      1.74368124     -0.41515475
H       3.21366414      1.78330308     -0.39368005
H       2.31529376      1.51095588      1.09996253
