15
b3lypvtz=-216917.18627989
C      -0.69338396      1.33465579      0.03681816
C      -0.36825546     -0.13704836     -0.07216728
C      -1.44440354     -1.07271068      0.42661298
O       0.26697482     -0.54766913     -1.28578020
C       1.03291843     -0.63527728     -0.07520182
C       2.20885863      0.27233282      0.03684628
O       3.11960545      0.06985907      0.79984188
H      -0.80452577      1.62700037      1.08247474
H       0.07341420      1.95650488     -0.41876288
H      -1.63893425      1.53851095     -0.46950309
H      -1.63679170     -0.90898832      1.48837033
H      -1.15645581     -2.11220718      0.27870227
H      -2.37498581     -0.89283119     -0.11584897
H       1.21597085     -1.63900552      0.29746340
H       2.19989392      1.14677378     -0.64196580
