16
b3lypvtz=-181157.52893506
C      -1.79507390      0.74696769     -0.66950864
C      -0.99763761     -0.07084482      0.00841638
C      -1.40426903     -1.46910720      0.38273774
C       0.39190272      0.35105491      0.48802120
C       0.77001555      1.82142407      0.25750186
C       1.41420159     -0.52650929     -0.10077373
N       2.21653250     -1.20537872     -0.56967198
H      -2.78045834      0.42457905     -0.97933787
H      -1.50931116      1.75218758     -0.94248555
H      -1.39359404     -1.60175709      1.46865738
H      -0.71307209     -2.20646679     -0.03203004
H      -2.40531899     -1.69773286      0.02156573
H       0.42541117      0.15867509      1.56733367
H       0.79637741      2.06127684     -0.80439207
H       0.04772893      2.47310779      0.74698430
H       1.75587729      2.02365176      0.67324861
