17
b3lypvtz=-171082.90880335
C      -1.43274086     -0.00005834     -1.26367771
C      -0.54646671      0.00000019     -0.00000520
C      -1.43283882      0.00005972      1.26359456
C       0.41176168     -1.17182424      0.00007429
C       1.67881220     -0.73450191      0.00006179
C       1.67881305      0.73449973     -0.00000152
C       0.41176302      1.17182351     -0.00003417
H      -2.07502705      0.88250743     -1.28207951
H      -2.07502523     -0.88262712     -1.28199912
H      -0.82401382     -0.00009900     -2.16793444
H      -2.07512439      0.88262882      1.28186414
H      -2.07512846     -0.88250473      1.28194433
H      -0.82418616      0.00009952      2.16790143
H       0.08233901     -2.20121985      0.00010555
H       2.56846623     -1.34813123      0.00010392
H       2.56846778      1.34812802     -0.00002172
H       0.08234153      2.20121949     -0.00008863
