16
b3lypvtz=-202069.79381111
N      -2.37471550     -0.12952808      0.04762594
C      -1.09986031     -0.02330910     -0.04304240
N      -0.34300266     -1.17580770     -0.15133611
C       1.05751542     -1.22781460      0.23531705
C       1.76442251      0.01729999     -0.28356257
C       1.03082172      1.25424793      0.21591985
N      -0.38279344      1.16478724     -0.14079040
H      -2.82760351      0.77967146      0.04220684
H      -0.90159376     -1.99541336      0.02437471
H       1.49993510     -2.12752293     -0.19435220
H       1.18451073     -1.29252131      1.32620989
H       1.76582153      0.00690769     -1.37503991
H       2.79972094      0.03525951      0.05919254
H       1.44350031      2.15594032     -0.23929784
H       1.16968724      1.34454999      1.30257516
H      -0.93430033      1.97279195      0.09661544
