13
b3lypvtz=-213750.37538891
C      -0.31758448      1.16439527      0.52321021
C      -0.67472672      0.50516033     -0.76601451
C       0.47778421     -0.05793676      0.05596856
C      -0.41672437     -1.28027654      0.26953530
O      -0.34010700     -2.31899072      0.86299726
N      -1.43084566     -0.73195912     -0.54047603
N       1.87166575      0.03519849     -0.16733376
H      -0.98607390      1.09432244      1.37233522
H       0.24938916      2.08440815      0.45390701
H      -0.62516956      0.96085119     -1.74219635
H      -2.40571873     -0.74699283     -0.26714847
H       2.39038363      0.00820347      0.70179289
H       2.20772768     -0.71638336     -0.75657735
