12
b3lypvtz=-200528.16510063
C      -0.20209269      1.03855988      0.24595375
C       0.89568930      0.08451774     -0.33154864
N      -0.10399472     -0.99081310     -0.27460396
C      -1.16006634     -0.13002813      0.04180350
N      -2.41171998     -0.21472527      0.12293392
C       2.09283724     -0.13628734      0.47722187
N       3.04332492     -0.29725732      1.10492060
H      -0.41176393      1.91848762     -0.35558179
H      -0.05128837      1.31951053      1.28493201
H       1.20123924      0.36005020     -1.34339857
H      -0.13101118     -1.80810168     -0.86646609
H      -2.76115351     -1.14391311     -0.10616657
