13
b3lypvtz=-190447.68798375
C      -1.45432877     -0.12606540      0.39927559
C      -0.35347264      0.67493661     -0.28890067
C      -0.76851714     -0.68248711     -0.80839234
N       0.29322033     -1.63463057     -0.52620039
C       1.24973118     -1.01714003      0.04795472
C       1.02958873      0.44708527      0.22695048
N       1.91101863      1.23066717      0.69685325
H      -1.24416516     -0.58803295      1.35483422
H      -2.46060364      0.25265268      0.28263318
H      -0.60911061      1.60628090     -0.77220105
H      -1.31524007     -0.83661674     -1.72677521
H       2.14644148     -1.52092720      0.38976406
H       1.57543769      2.19427736      0.72420415
