16
b3lypvtz=-227754.15353364
C      -1.26785963      1.01434855      0.29730081
C      -0.71470009     -0.04942823     -0.65043734
O      -1.73789262     -0.93233994     -1.09929214
C       0.45427980     -0.82757670     -0.04252820
N       0.49637647     -2.08810668      0.06432479
C       1.62876272     -0.02886734      0.47652284
O       1.85489571      1.09201618     -0.37885367
H      -0.50691490      1.75559755      0.53501708
H      -1.61513274      0.56184009      1.23065224
H      -2.10850438      1.52236736     -0.17469559
H      -0.34085179      0.44353081     -1.54960440
H      -2.29949454     -1.15640814     -0.34926335
H      -0.36304920     -2.48962880     -0.31803660
H       2.49320018     -0.69367701      0.51842743
H       1.40412008      0.30385821      1.49895879
H       2.62276492      1.57227410     -0.05859270
