14
b3lypvtz=-229591.47484877
C      -3.02885926     -0.19076908      0.19621919
N      -1.67575770     -0.42514673     -0.28197378
C      -0.71125248      0.53157539     -0.10343778
C       0.62273021      0.35765378     -0.01805778
F       1.38569808      1.49031447      0.03508533
C       1.36902301     -0.87783823      0.01875256
N       2.63533822     -1.02261604      0.06900422
H      -3.69896984     -0.92739641     -0.24400219
H      -3.35920495      0.79687250     -0.12651896
H      -3.11917555     -0.24265729      1.28723659
H      -1.37013411     -1.38377030     -0.24009831
H      -1.08184227      1.54983056     -0.07646762
H       0.76386854     -1.78713359      0.01392950
H       3.09209211     -0.10870902      0.06598102
