14
b3lypvtz=-203643.9897801
C      -0.36838659      1.54937728     -0.39968552
C      -0.64524599      0.08005957     -0.34933983
C       0.33316429     -0.88754777      0.29520484
C       1.54085839     -0.29067545      0.84797852
C       2.54226142      0.18171465      1.30874589
N      -1.73677552     -0.32113603     -0.87041011
O      -1.88741824     -1.72184351     -0.76245317
H      -1.18728757      2.06217253     -0.89849141
H       0.56311354      1.74897185     -0.93319046
H      -0.24636783      1.95423186      0.60702323
H       0.59945551     -1.64600915     -0.44711768
H      -0.19963336     -1.43978648      1.07524620
H       3.42866604      0.59917988      1.71651851
H      -2.73630410     -1.86860923     -1.19012899
