18
b3lypvtz=-181912.9412742
C       2.34046046     -0.54482511      0.05649928
C       1.22623894      0.49713034     -0.04592761
C      -0.11711031     -0.06800928     -0.54969928
C      -0.85915550     -0.94247865      0.49729294
N      -1.82352064     -0.01504892      1.12361423
C      -2.05263635      0.99893637      0.18388950
C      -1.14223876      1.02421818     -0.79075338
H       2.54591882     -0.99698056     -0.91676362
H       2.08184352     -1.35137001      0.74560733
H       3.26810808     -0.09563308      0.41510050
H       1.06468728      0.97427240      0.92465589
H       1.54122590      1.29216389     -0.72748038
H       0.08149302     -0.65276208     -1.45252544
H      -0.19236704     -1.37208474      1.24493411
H      -1.38360048     -1.76256617     -0.00598284
H      -2.64795611     -0.44967340      1.51086739
H      -2.87110960      1.68659258      0.34311726
H      -1.06028121      1.77811827     -1.55735201
