17
b3lypvtz=-191965.18027023
C      -2.48009274      1.44454532     -0.22357255
C      -1.24715905      0.62914765     -0.50430177
C      -0.61629724     -0.24299297      0.53920782
N      -1.40086567     -0.82080270     -0.55823010
C       0.85391397     -0.41879075      0.54235469
N       1.47178704     -0.87018562     -0.46350986
C       2.91279852     -0.99515351     -0.40549644
H      -3.05129709      1.60048653     -1.14141921
H      -3.12570477      0.93047139      0.48838514
H      -2.21988961      2.42422506      0.18252956
H      -0.54227717      1.06663597     -1.20487080
H      -1.08840602     -0.28701871      1.51466873
H      -0.73694719     -1.21368242     -1.22261179
H       1.37554310     -0.13512777      1.46705536
H       3.34128212     -0.68433145      0.55650510
H       3.19302931     -2.03277904     -0.59782868
H       3.36058255     -0.39464697     -1.20020420
