16
b3lypvtz=-181134.21412803
C       0.34180742     -1.14924833     -0.62428200
C       1.74872368     -0.65850247     -0.40996286
C       1.79260807      0.45990445      0.30759816
C       0.42126141      0.93356921      0.71244447
C      -0.51423478     -0.01113506     -0.05626613
C      -1.94085442     -0.16457942      0.29429237
N      -1.55222280      0.53062719     -0.94792959
H       0.16756549     -2.09390856     -0.09696519
H       0.09947456     -1.32175823     -1.67522547
H       2.61539034     -1.18222128     -0.79092963
H       2.69691313      0.97841654      0.59670204
H       0.27909945      0.85769006      1.79626080
H       0.24444906      1.98171191      0.44959523
H      -2.33016572      0.42171295      1.11956020
H      -2.43653046     -1.11728890      0.14690023
H      -1.63328442      1.53500996     -0.82179261
