16
b3lypvtz=-227745.42918157
C      -2.73978479     -0.66262838      0.30186862
O      -1.74814734      0.09222134     -0.38200844
C      -0.45960815     -0.38339767     -0.22056278
C       0.52998428      0.48825228     -0.02046161
O       0.29173327      1.82981639      0.08560548
C       1.99428475      0.16115786      0.09215396
N       2.38431940     -1.23925437      0.03733538
H      -2.58231521     -0.63761795      1.38454976
H      -3.70240280     -0.21500613      0.06273296
H      -2.73775518     -1.70534756     -0.03305040
H      -0.30695190     -1.44918562     -0.31960699
H      -0.66113916      1.96046921     -0.01887876
H       2.52481006      0.70236502     -0.69725557
H       2.35824083      0.58991342      1.03087924
H       1.93618045     -1.77222318      0.77223253
H       2.12140250     -1.65815065     -0.84594239
