16
b3lypvtz=-204478.54030711
C      -2.05514784     -0.99337884      0.32730638
C      -1.23466960      0.04948477      0.20626885
C      -1.55206929      1.22621303     -0.67544413
C       0.07607414      0.11841930      0.94948551
C       1.33698044     -0.03814665      0.08725705
N       1.23486527     -0.93607946     -0.92917400
O       2.36108877      0.57151428      0.32758265
H      -2.99323006     -1.04215997     -0.21120124
H      -1.82410532     -1.82485391      0.98170674
H      -1.61283211      2.14308905     -0.08265773
H      -0.76472969      1.38697387     -1.41678464
H      -2.49722248      1.09377724     -1.20024950
H       0.18816118      1.07666233      1.45752449
H       0.11929435     -0.66122701      1.71372359
H       0.37394567     -1.41693307     -1.12092425
H       2.04064155     -1.10333597     -1.50641577
