14
b3lypvtz=-203673.07699657
C      -1.09630754     -1.01931835      0.26054200
C       0.20281826     -0.77380126     -0.48146331
C      -1.00404344      0.11264535     -0.73492338
N      -0.63730060      1.45160291     -0.31807047
C       0.61063725      1.35310268      0.35190859
C       1.15787518      0.14359414      0.20123235
O       2.44936529     -0.19821795      0.50805943
H      -1.69143368     -1.86761242     -0.04844801
H      -1.12007325     -0.79514118      1.31870297
H       0.56427633     -1.49054932     -1.20786687
H      -1.58854494      0.04560137     -1.64233314
H      -1.35854559      1.94508927      0.19198735
H       1.03710480      2.21791598      0.83407744
H       2.47417194     -1.12491123      0.76659505
