13
b3lypvtz=-239489.91196928
C      -2.00676723      0.06247524     -0.33307995
C      -0.63924437     -0.56753707     -0.45679200
O      -0.26334308     -1.14215807     -1.44590905
C       0.25394093     -0.42184637      0.77487294
O       1.54631832     -0.98696437      0.57555194
C       2.41818536     -0.22894641     -0.11446898
O       2.22397863      0.88894842     -0.49839921
H      -2.63015173     -0.24954381     -1.16700254
H      -1.90572011      1.15074236     -0.35018549
H      -2.48499550     -0.20268347      0.61220606
H       0.32964054      0.63277133      1.04621679
H      -0.18915470     -0.96762865      1.60852263
H       3.34721294     -0.79422913     -0.25153315
