15
b3lypvtz=-216915.52625378
C      -3.12120978     -0.35949433     -0.00000467
C      -1.93290836      0.22757686      0.00001737
O      -0.78733978     -0.52597533     -0.00003360
C       0.44962735      0.03661797     -0.00001360
O       0.41795390      1.39564022     -0.00002019
C       1.53424807     -0.73977047      0.00000266
C       2.95392742     -0.26081106      0.00000804
H      -3.22570470     -1.43496617     -0.00006367
H      -4.01231533      0.24862726      0.00003760
H      -1.79192747      1.29686624      0.00007499
H       1.32310473      1.72306206      0.00000441
H       1.35400270     -1.80512922      0.00000857
H       3.04688530      0.82928221      0.00001138
H       3.49925246     -0.61666846      0.87860452
H       3.49925849     -0.61666377     -0.87858681
