14
b3lypvtz=-229601.1825772
C      -2.69681560      0.28601148      0.00104178
C      -1.41760780      0.67593717     -0.07241615
C      -0.27294043     -0.18088441      0.00392507
F      -0.54704817     -1.52853046      0.07407517
C       1.04012318      0.15030952      0.00017347
N       2.04656205     -0.79620286     -0.13609001
N       1.52732181      1.45049762      0.13733363
H      -2.96415152     -0.75146845      0.14302864
H      -3.49993046      1.00330007     -0.08512974
H      -1.20371235      1.72888893     -0.22261387
H       2.81769567     -0.65815945      0.50227067
H       1.70900738     -1.74634599     -0.13064676
H       0.81955801      2.15626033      0.25908779
H       2.18981522      1.70513251     -0.58401670
