16
b3lypvtz=-204424.0920568
C       0.71801662      0.62259240      1.60632881
C       0.52832540      0.13692480      0.37588919
C       1.54635999      0.32936182     -0.72256469
O       1.91332196     -0.87446590     -1.38548859
N      -0.57009832     -0.65657174      0.01519419
C      -1.55513345     -0.20863506     -0.95498070
C      -1.91042643     -0.38591940      0.48558566
H       1.63459390      1.13505612      1.85875140
H      -0.01855933      0.50410330      2.38879550
H       2.42032059      0.84008912     -0.30585959
H       1.13303175      0.97166548     -1.50483646
H       2.05754007     -1.55343148     -0.71859997
H      -1.48510092      0.81172365     -1.31698374
H      -1.85876309     -0.94052414     -1.69237674
H      -2.48458377     -1.24754706      0.80268593
H      -2.06874496      0.51537809      1.06855981
