18
b3lypvtz=-205211.17518187
C      -2.60653723      0.00671413      0.64444783
C      -1.26410929      0.00057725     -0.00060282
O      -1.31714316     -0.01331458     -1.35915050
C      -0.08997013      0.00719911      0.64083881
N       1.11885163     -0.00104530     -0.12742695
C       1.91706360      1.20971459      0.06216559
C       1.91534816     -1.20897512      0.08605666
H      -3.17665772      0.88239749      0.32643005
H      -3.17571496     -0.87596028      0.34459597
H      -2.51707372      0.01795671      1.72912432
H      -0.38332465     -0.01600278     -1.64015102
H      -0.03862444      0.01838626      1.72745205
H       2.30001404      1.30501868      1.09041403
H       1.31036936      2.08659897     -0.15830387
H       2.77120569      1.19832454     -0.61739779
H       2.29808837     -1.28452999      1.11602325
H       2.76952773     -1.21222673     -0.59355163
H       1.30735071     -2.08914698     -0.11707295
