15
b3lypvtz=-216922.44274478
C       1.99642666     -0.50672793      0.48059636
C       0.79572530     -0.03465146     -0.30908227
C      -0.54594943     -0.72826426      0.01624355
C      -1.48368474      0.45094988      0.01213653
C      -0.77783543      1.57714835     -0.01021704
O       0.58405186      1.38435118     -0.05162551
O      -2.83882179      0.35687038      0.19370026
H       2.21322787     -1.55250170      0.25416679
H       2.87603038      0.08692674      0.23072756
H       1.81087814     -0.41471301      1.55155071
H       0.99272108     -0.12298466     -1.38251475
H      -0.79466682     -1.48747068     -0.73005148
H      -0.53868599     -1.22223095      0.99566133
H      -1.11286767      2.60006762      0.03990229
H      -3.17654944     -0.38676949     -0.31554947
