19
b3lypvtz=-195145.42543623
C      -2.83673716      0.10654265     -0.25126030
C      -1.71282244     -0.28730856      0.33489104
C      -0.47888468     -0.73795863     -0.38743583
C       0.80943007      0.01655310     -0.00032404
C       2.00361663     -0.57664144     -0.75311965
C       0.69154008      1.51873415     -0.26696783
O       0.96955256     -0.21840114      1.41138293
H      -3.70298420      0.40429423      0.32528996
H      -2.93543895      0.14062105     -1.33065736
H      -1.65269220     -0.30653703      1.41767628
H      -0.62610155     -0.65647809     -1.46668425
H      -0.30224037     -1.79500762     -0.16295499
H       2.10625458     -1.63734599     -0.52298748
H       2.92909601     -0.07364690     -0.46211472
H       1.88988568     -0.46369574     -1.83291300
H      -0.14305461      1.94474739      0.28774485
H       1.60762637      2.03164462      0.03731474
H       0.53619230      1.72034191     -1.32853139
H       1.73928190      0.27279602      1.71594003
