17
b3lypvtz=-191948.18098838
C       0.66440180     -0.63837916      0.98770468
C       0.06812319      0.58988974      0.34394091
C       1.31433780     -0.03430078     -0.22625875
N       2.56102008      0.66391930     -0.03264516
C      -1.22880068      0.58555027     -0.39898204
C      -1.97220722     -0.64930024     -0.73657211
N      -2.49728445      0.27254191      0.28606165
H       0.17045893     -1.59344982      0.87583085
H       1.17318815     -0.49666630      1.93061145
H       0.25798560      1.50928301      0.88622963
H       1.17092815     -0.58807873     -1.15217284
H       2.71846967      1.33731102     -0.77355083
H       3.34210708      0.01800313     -0.04293571
H      -1.33297517      1.41789039     -1.08875321
H      -2.55011653     -0.69220070     -1.65134343
H      -1.57251894     -1.60284691     -0.41536351
H      -2.28711746     -0.09916612      1.20819843
