13
b3lypvtz=-216161.08002823
O       2.99497814     -0.99975370     -0.31583185
C       1.87628160     -0.60489302     -0.29378337
C       1.06884744      0.56059861     -0.86063750
C      -0.08123308     -0.10532712     -0.12719893
C      -1.16417914      0.43205862      0.72809931
C      -1.48094861     -0.39138529     -0.51721556
O       0.79716470     -1.16598462      0.35157445
H       1.01030121      0.57144140     -1.94741499
H       1.38079929      1.53582433     -0.49170909
H      -1.35505104      1.49670419      0.70904598
H      -1.31885813     -0.04352754      1.68666576
H      -1.84140082     -1.39910956     -0.36424737
H      -1.88660157      0.11325369     -1.38384685
