14
b3lypvtz=-224599.70952407
C       1.50887872     -0.38188699     -0.66675217
N       2.72243572     -0.30284162     -0.26831549
C       0.31168113      0.00137957      0.06215302
C      -0.93092024     -0.15428602     -0.46398931
N      -2.07880230      0.34293202      0.11566501
O      -1.11742689     -0.79866776     -1.64503353
N       0.37933717      0.58079245      1.37585645
H       1.34179320     -0.77956813     -1.66638085
H       2.76207259      0.07915838      0.68030699
H      -1.88395870      0.72805732      1.03133761
H      -2.86174133     -0.29687240      0.11648415
H      -1.89350049     -0.42547151     -2.08064887
H       0.83476061     -0.04061849      2.03600653
H       0.90539081      1.44789318      1.37331045
