20
b3lypvtz=-182682.23544695
C      -3.14913690      0.33484294     -0.15067425
C      -1.70971029      0.01786163     -0.55334880
C      -0.90520719     -0.62275429      0.57991391
C       0.53303283     -0.97775114      0.20270732
C       1.50004588      0.18256034      0.08349186
C       2.86734382     -0.17464916     -0.45095079
N       1.14238263      1.34845397      0.43791880
H      -3.70478457      0.78392819     -0.97573914
H      -3.68404643     -0.56718974      0.15678276
H      -3.17595676      1.03550979      0.68661282
H      -1.71381917     -0.65567402     -1.41731788
H      -1.20932500      0.93410668     -0.87063749
H      -0.88937533      0.05382945      1.43654095
H      -1.41294382     -1.53629694      0.90425362
H       0.95543327     -1.66394225      0.94649367
H       0.55145063     -1.53930971     -0.73870127
H       3.53449804      0.68694437     -0.44828483
H       3.32074976     -0.97052414      0.14508040
H       2.79050792     -0.55295689     -1.47340639
H       1.90444966      2.01667593      0.31972073
