13
b3lypvtz=-213782.27823412
O      -2.55157819     -0.35694569      0.00026098
C      -1.67833363      0.48126530      0.00017888
N      -0.33598590      0.21006128      0.00008038
C       0.23181548     -1.06877623     -0.00013233
N       1.49778160     -1.12239384     -0.00018873
C       2.00308179      0.26135680      0.00005758
C       0.75840729      1.19450778     -0.00015799
H      -1.88604988      1.56466974      0.00012769
H      -0.42953207     -1.92323344     -0.00021359
H       2.63152535      0.41379165      0.87809994
H       2.63199080      0.41397838     -0.87759678
H       0.70979626      1.82855054      0.88488914
H       0.70975010      1.82814273     -0.88550220
