16
b3lypvtz=-204453.1776543
C       2.26577615      1.04456714      0.04469372
C       1.25481086     -0.07296409     -0.04010737
O       1.51938529     -1.15338956     -0.52925072
C      -0.10448373      0.20470541      0.51234278
N      -0.97487911     -0.94305937      0.80397949
C      -1.28019289     -0.13017587     -0.36076564
C      -2.54104660      0.69018580     -0.32816930
H       1.85842203      1.96290734     -0.38457849
H       2.49195995      1.25750532      1.09275690
H       3.17877310      0.76297441     -0.47336481
H      -0.19436208      1.04191629      1.19430712
H      -0.47154650     -1.77925448      0.51217940
H      -1.01354472     -0.55146349     -1.32526366
H      -3.39620764      0.08234374     -0.63105768
H      -2.73286238      1.06061901      0.67863125
H      -2.47388471      1.54050642     -1.00968899
