19
b3lypvtz=-192733.9696618
C      -2.26703188     -1.42978709     -0.05529768
N      -2.09208423     -0.22643032     -0.38514756
C      -1.42387896      0.66292149      0.55196384
C      -0.28365613      1.43011105     -0.12795248
C       0.88335496      0.56574902     -0.61885807
C       1.72341501     -0.07145935      0.49479807
N       2.87454211     -0.86229893      0.05209409
H      -1.93636518     -1.84910156      0.90405686
H      -2.77415648     -2.10531140     -0.74131614
H      -2.16958319      1.38962172      0.88661617
H      -1.06863001      0.12625493      1.44330048
H      -0.70782416      1.97394713     -0.97462332
H       0.08747079      2.18168881      0.57569683
H       1.54359949      1.18704826     -1.23247165
H       0.50319573     -0.21886167     -1.27992901
H       1.10135192     -0.72222311      1.11369854
H       2.09474542      0.71270473      1.16160377
H       2.56736555     -1.62776026     -0.53783619
H       3.49108425     -0.29419246     -0.51862954
