16
b3lypvtz=-204427.67296471
C      -0.70282994     -0.89723422     -1.37706217
C      -0.51292133     -0.20517484     -0.25661614
C      -1.61479944     -0.00280012      0.75176015
O      -1.95869765      1.37768637      0.91285433
C       0.78872471      0.43002432      0.09403532
C       1.96376380     -0.37499932      0.53723429
N       1.92854586      0.21996372     -0.80384525
H       0.09609761     -1.02022561     -2.09531614
H      -1.65680046     -1.36227176     -1.59187668
H      -1.29244427     -0.32839495      1.74331925
H      -2.49079210     -0.59642502      0.47245696
H      -2.25003537      1.70773675      0.05634913
H       0.68969545      1.40443876      0.56024874
H       2.62386425      0.05015137      1.28434183
H       1.88232886     -1.45458846      0.55350541
H       2.50630005      1.05211301     -0.84138903
