16
b3lypvtz=-204428.40307826
C      -2.55350696     -0.20884049     -0.00038443
C      -1.32920220     -0.71908122     -0.00106647
C      -0.06553689      0.07066867      0.00022427
O      -0.36857559      1.45344208      0.00229513
C       1.02880341     -0.29231864     -1.05159678
N       2.05147025     -0.07503872      0.00012850
C       1.02868702     -0.29555156      1.05106352
H      -2.71497260      0.85979947      0.00119079
H      -3.42499268     -0.84982358     -0.00138333
H      -1.19119360     -1.79554185     -0.00262883
H       0.46768516      1.93227009      0.00294773
H       1.09473474      0.37300622     -1.91409759
H       0.94227909     -1.32904167     -1.39428322
H       2.83347394     -0.71710208     -0.00081298
H       0.94209976     -1.33332749      1.39054289
H       1.09451517      0.36708976      1.91562881
