19
b3lypvtz=-195131.42216072
C       2.22889788     -0.99733891     -0.10424759
C       1.17949204      0.04686752     -0.50714980
C       1.50331153      1.40644436      0.11926451
C      -0.22014927     -0.47223073     -0.19837981
C      -0.87432537     -0.39195865      1.17622345
C      -1.43421015      0.37441787      0.01356628
O      -2.67608958      0.06284660     -0.56501429
H       2.03899776     -1.95810922     -0.58677786
H       3.23352487     -0.67483722     -0.38469041
H       2.21861008     -1.16034131      0.97599255
H       1.23294728      0.16956246     -1.59497412
H       1.47834559      1.36415887      1.21033273
H       2.50743493      1.72140971     -0.16905862
H       0.81160610      2.18413164     -0.20624413
H      -0.43374246     -1.40432901     -0.71558547
H      -0.38377176      0.16057050      1.96654245
H      -1.41953503     -1.26239819      1.51873654
H      -1.31696795      1.44863361      0.02886039
H      -2.76361949     -0.89336491     -0.62451879
