15
b3lypvtz=-214501.35571649
C      -1.45317881     -0.98097105      0.09087899
C      -0.65990135      0.20978368     -0.47402686
C       0.36344941     -0.14958188      0.64057352
O      -0.34034933     -1.38051379      0.93191782
C       1.79539260     -0.39231453      0.27452717
N       2.36887608      0.30999702     -0.60822828
N      -1.33737280      1.47946681     -0.53285298
H      -1.74649006     -1.77190302     -0.60035448
H      -2.31916625     -0.67687909      0.68775816
H      -0.23502341      0.00112787     -1.45376641
H       0.31653585      0.54251366      1.49423069
H       2.27590155     -1.20942253      0.82546946
H       3.34150062      0.03147480     -0.73160129
H      -0.74044543      2.19406971     -0.92977869
H      -1.62972866      1.79315233      0.38525316
