13
b3lypvtz=-192869.14985483
C      -2.69410249      0.30097350     -0.00001405
C      -1.62959083     -0.50348860      0.00000699
C      -0.24590581     -0.08866024      0.00001018
C       0.40857659      1.11184808     -0.00002257
C       1.80293832      0.82299233      0.00006056
C       1.91009006     -0.53049247     -0.00006444
O       0.67982655     -1.10225148     -0.00001945
H      -3.69520576     -0.10528637      0.00007874
H      -2.60368833      1.37958344     -0.00012097
H      -1.77218582     -1.57837560      0.00002684
H      -0.05070287      2.08524905      0.00000512
H       2.61629833      1.52821365      0.00008015
H       2.74635806     -1.20617627     -0.00003809
