14
b3lypvtz=-231999.69301317
C      -0.50376080     -0.87669961      0.61022346
C      -1.71384500     -0.08161401      0.03536675
C      -0.71524925      0.95516332     -0.48121304
O      -0.77343596      1.85089629     -1.27235053
C       0.44642558      0.32102910      0.30875549
C       1.73477323      0.09747679     -0.44399402
F       2.66598305     -0.53859462      0.38012154
H      -0.57652416     -1.16815346      1.65420451
H      -0.25904464     -1.75576693      0.01585259
H      -2.37164537      0.33727994      0.79932480
H      -2.32919998     -0.55983512     -0.72622284
H       0.64968183      0.91324279      1.20548806
H       2.16416740      1.04652238     -0.76827381
H       1.58167409     -0.54094685     -1.31728294
