11
b3lypvtz=-192052.56503073
C      -3.64528201      0.01960465     -0.00000499
C      -2.43945502      0.03725697     -0.00000311
C      -1.07987736      0.05347789     -0.00000121
C       0.13128123      0.08171242      0.00000006
C       1.55177085      0.04519419      0.00000211
C       2.31371081      1.14334300      0.00000888
O       2.13125329     -1.20024016     -0.00000372
H      -4.70668681      0.00677471     -0.00000644
H       1.85875994      2.11987858      0.00001375
H       3.39068597      1.06197399      0.00000957
H       1.44149311     -1.87149324     -0.00001491
