14
b3lypvtz=-203678.45787148
C      -1.42335969     -0.70087049     -0.44276993
C      -0.57153061      0.52076732     -0.78402462
C      -0.26163012      1.27140479      0.45355484
C       0.58291056      0.04241134      0.19737580
C      -0.20850403     -1.21090828      0.37390611
O       0.12391139     -2.31592805      0.71447356
N       1.98546985      0.15245050      0.08090680
H      -1.62587331     -1.37265065     -1.27649988
H      -2.34709362     -0.50840935      0.10419699
H      -0.40860152      0.91894317     -1.77328415
H      -0.97054641      1.29204939      1.27371885
H       0.30443581      2.18529000      0.32581697
H       2.41988217      0.45595576      0.94313590
H       2.40052955     -0.73050546     -0.19050724
