16
b3lypvtz=-202021.66175113
C      -2.96897129      0.24809977     -0.28411239
N      -1.61442439     -0.16287738      0.05957092
N      -0.66849611      0.69876471     -0.53039902
C       0.52810302      0.29587627     -0.54854051
C       1.33326921     -0.89493354     -0.03902481
C       2.57512737     -0.01516325     -0.35223362
N       1.67241691      0.94192242     -1.03161780
H      -3.66842545     -0.44902135      0.17897212
H      -3.15211556      1.24126265      0.12401122
H      -3.15906751      0.28235675     -1.36425661
H      -1.45818996     -1.12372344     -0.23234705
H       1.25440031     -1.80094818     -0.63958260
H       1.16340780     -1.13792357      1.00839211
H       3.05433778      0.37944399      0.54601390
H       3.32954787     -0.44839295     -1.00818795
H       1.77908000      1.94525709     -0.97628800
