16
b3lypvtz=-204455.00803668
C      -3.35353065      0.25963976     -0.03791416
C      -2.13758089     -0.65147046      0.10888527
N      -0.93865171      0.00762460     -0.38611892
C       0.03632263      0.16101227      0.39957650
C       1.32045616      0.81429496     -0.04093462
C       2.37554888     -0.23539225     -0.34282413
O       3.40887345     -0.35740180      0.25937770
H      -4.26082926     -0.26386002      0.26680246
H      -3.46836482      0.58019722     -1.07333666
H      -3.24889388      1.15058541      0.58299428
H      -2.02500145     -0.97562779      1.15330987
H      -2.28666652     -1.54792100     -0.49905013
H       0.01112469     -0.19992375      1.43738801
H       1.70906899      1.48009159      0.72993473
H       1.12259138      1.37122368     -0.95941859
H       2.11772802     -0.91324842     -1.18158961
