16
b3lypvtz=-202032.00531609
C      -2.25504756     -0.55276819      0.00008848
N      -1.54741953      0.51005420      0.00004137
N      -0.17490860      0.52167842     -0.00003328
C       0.34706326      1.88750580     -0.00017099
C       0.68386385     -0.57018489      0.00002167
C       2.16061375     -0.22615689      0.00022883
N       0.23779798     -1.77120975     -0.00007379
H      -3.32514912     -0.37234470      0.00018382
H      -1.86651555     -1.55913502      0.00005487
H       0.94792550      2.09556030      0.88695541
H       0.94800543      2.09532946     -0.88729601
H      -0.51393695      2.54577461     -0.00029516
H       2.44171100      0.35488014     -0.87911724
H       2.44141722      0.35505710      0.87955128
H       2.73942334     -1.14690528      0.00041539
H       1.01138696     -2.42802131      0.00002634
