14
b3lypvtz=-224565.46563554
C      -1.23644973      0.04632151     -1.19325180
C      -1.10649722      0.72527763      0.20026392
C       0.30240488      0.16518755      0.19212329
N       1.16198422      0.04396146      1.11024433
N       2.31018525     -0.70283387      0.75316234
N       0.22773317     -0.22461425     -1.14923085
O      -1.97422784      0.21259744      1.18621254
H      -1.85841361     -0.84617124     -1.13359438
H      -1.54112710      0.67411845     -2.02883554
H      -1.15692637      1.81720537      0.16055354
H       2.71181566     -0.35558157     -0.11590907
H       2.99226131     -0.55791482      1.48495020
H       0.62822638     -1.09985195     -1.46126409
H      -1.46096901      0.10229832      1.99457559
