17
b3lypvtz=-194371.44236209
C       3.14902643      0.04573115     -0.27210420
C       1.99881398     -0.42915523     -0.73035953
C       0.90296506     -1.01461949      0.11998718
C      -0.41703610     -0.31700002     -0.07451460
C      -1.10998865      0.28106832      0.88646704
C      -2.43020698      0.97611144      0.70755933
O      -3.00959478      0.83799583     -0.58000682
H       3.89972760      0.45214581     -0.93705834
H       3.38312975      0.04524784      0.78626363
H       1.80448593     -0.40370156     -1.79931960
H       1.19371781     -0.98869664      1.17213046
H       0.78390975     -2.07199954     -0.15135952
H      -0.80692749     -0.29732045     -1.08800999
H      -0.72343428      0.29091575      1.90299181
H      -2.30336610      2.05204133      0.85911249
H      -3.12507714      0.63739366      1.48875160
H      -3.19014479     -0.09595819     -0.72853095
