16
b3lypvtz=-202047.77312943
N      -2.86035167     -0.02566614      0.05711472
C      -1.50813746      0.09679981     -0.24654570
C      -0.52063953     -0.66886475      0.24261523
C       0.91346409     -0.47837753      0.02272202
N       1.63586041     -1.69240480     -0.19587091
C       1.54227368      0.70950037     -0.02997252
N       0.94910502      1.99207679      0.03331624
H      -3.49016323      0.24814817     -0.68024971
H      -3.13140868     -0.90336222      0.47543624
H      -1.28386720      0.92291573     -0.91017195
H      -0.79748031     -1.53288465      0.84718979
H       1.27654589     -2.44718644      0.37456173
H       2.62357922     -1.58942326     -0.00274315
H       2.60976877      0.73150016     -0.21805044
H       1.54993698      2.65549903      0.50487205
H       0.05016803      1.97352472      0.50109335
