17
b3lypvtz=-217691.30505296
C      -0.71875493     -1.51660488     -0.37947634
C      -0.80036500     -0.02801985     -0.17930802
C      -2.19012560      0.54618982     -0.21221939
C       0.26214275      0.75606779      0.01123094
C       1.69613323      0.30396763      0.06519230
O       2.00205685     -0.49448447      1.19934761
O       2.48300451      1.47876427      0.04081993
H       0.29487291     -1.90041253     -0.30251124
H      -1.12929624     -1.79255546     -1.35548988
H      -1.32707128     -2.03335572      0.36857853
H      -2.67747467      0.32681215     -1.16705867
H      -2.18723008      1.62613959     -0.07014822
H      -2.81594073      0.09788265      0.56529152
H       0.12771281      1.82437630      0.13828315
H       1.95458474     -0.34054037     -0.78028196
H       1.61958875     -0.06163115      1.97219640
H       3.40606198      1.20750422      0.08555335
