12
b3lypvtz=-247149.63684045
N      -2.58148940     -0.69265144     -0.09347898
C      -1.49635281      0.17409556      0.00093991
O      -1.59573724      1.37692524     -0.03294280
N      -0.29481592     -0.52084778      0.11372440
N       0.87917757      0.18904510      0.10728696
C       1.95812652     -0.44774346     -0.04856148
O       3.15445859      0.17522852     -0.04037428
H      -2.53479508     -1.55615496      0.42450742
H      -3.46103892     -0.21081053      0.00141019
H      -0.27820131     -1.47195800     -0.23365713
H       2.05878560     -1.52218683     -0.19876932
H       2.98799839      1.11984158      0.09421712
