17
b3lypvtz=-215293.23147027
C      -1.80021330     -0.85264053      0.85911761
C      -1.27152282     -0.65554324     -0.56112977
C      -0.14357965      0.38995301     -0.69916176
N      -0.60795486      1.69913530     -0.25274236
C       1.09151809     -0.01521922      0.10395377
N       1.48906553      0.48057930      1.19050827
O       1.80372844     -1.04528223     -0.43539393
H      -2.59757116     -1.59692812      0.86428771
H      -2.19969679      0.07513552      1.26670097
H      -1.01395832     -1.19826863      1.53071195
H      -0.90891488     -1.60917298     -0.95291174
H      -2.08726597     -0.35079493     -1.22414515
H       0.16021463      0.39442502     -1.75946251
H       0.05157009      2.42507036     -0.50525572
H      -1.49597838      1.92992657     -0.68080199
H       0.83865374      1.21100901      1.47348673
H       1.44094461     -1.27978620     -1.29594808
