11
b3lypvtz=-168739.29814214
C       4.00730492      0.00025317      0.00023219
C       2.79979672      0.00016252     -0.00001171
C       1.44475138     -0.00014524     -0.00031414
C       0.22870489     -0.00029142     -0.00050363
C      -1.12537562     -0.00026164     -0.00050836
C      -2.33525849     -0.00012925     -0.00033333
C      -3.78497715      0.00036076      0.00016440
H       5.06858785      0.00067811      0.00055197
H      -4.17501598      0.61159856      0.81696677
H      -4.17580264      0.40215987     -0.93722408
H      -4.17591888     -1.01225244      0.12122692
