13
b3lypvtz=-216155.46848083
C      -3.12240744     -0.74741298      0.00003164
C      -2.22040943      0.21885688      0.00004315
O      -0.87481045     -0.05961296      0.00002217
C       0.00094289      0.96693729      0.00004228
C       1.32959903      0.79240396      0.00002841
C       1.99977845     -0.50495180     -0.00000803
O       3.20671953     -0.63267003     -0.00002043
H      -2.83721559     -1.78943131      0.00000623
H      -4.17129536     -0.49555221      0.00004774
H      -2.46738797      1.27467221      0.00006860
H      -0.44478410      1.95703291      0.00006950
H       1.95869669      1.67156716      0.00004579
H       1.33873377     -1.39031913     -0.00002606
