14
b3lypvtz=-224603.95095473
N       2.76155212     -0.42736605      0.06908536
C       1.58027488      0.02885890      0.01823906
O       1.27713530      1.34779088     -0.10560905
N       0.47978267     -0.81248705      0.12935645
C      -0.78963341     -0.48035615     -0.42079882
C      -1.81129637     -0.13617151      0.37723627
N      -3.06605490      0.26557333     -0.02352461
H       3.43667197      0.33020884      0.04816621
H       0.31321795      1.44767216     -0.11769536
H       0.76266526     -1.78054962      0.09231865
H      -0.91903192     -0.52865612     -1.50143618
H      -1.64741582     -0.11766801      1.44840292
H      -3.81183281      0.14047715      0.63904650
H      -3.33458891      0.05877523     -0.97241239
