15
b3lypvtz=-191172.33936923
C       3.56432509     -0.18247108     -0.29551648
C       2.42486784     -0.25015921      0.07388713
C       1.03451992     -0.30552447      0.50640847
C       0.15555926      0.72772107     -0.21559113
N      -1.22446861      0.65171877      0.24476956
N      -1.89825069     -0.46059202     -0.14792099
C      -3.16941888     -0.43925109     -0.18039444
H       4.57450718     -0.13351257     -0.61641216
H       0.97080284     -0.13404461      1.58401795
H       0.62564185     -1.30083721      0.32094161
H       0.23475390      0.58009420     -1.29798891
H       0.51300048      1.73298888      0.00906863
H      -1.74339903      1.52078093      0.15110163
H      -3.68740033     -1.34880498     -0.45192675
H      -3.75999282      0.44831038      0.06225287
