15
b3lypvtz=-191234.45151197
C      -2.44950990     -0.52856023      0.01409436
N      -1.07723454     -0.07742173     -0.02736022
C      -0.65932378      1.21998361     -0.01267904
C       0.71748047      1.24020431      0.00904516
C       1.15824015     -0.11137991      0.00705702
N       2.49719021     -0.53639381      0.09399369
C       0.03012922     -0.90472560     -0.01431183
H      -2.62919871     -1.28149704     -0.75517166
H      -3.10935822      0.31616526     -0.17304693
H      -2.70155221     -0.95817753      0.98700647
H      -1.36887173      2.02969562     -0.01893849
H       1.33956750      2.11978837      0.02533196
H       2.62973327     -1.48645426     -0.22117562
H       3.12862867      0.06951340     -0.41011359
H      -0.07594839     -1.97602848     -0.01543329
