12
b3lypvtz=-226247.23280515
C      -1.34416278     -0.08370735     -0.37154704
C      -0.33617601     -0.46590760      0.69704123
C      -0.45857463      0.95867954      0.24915057
O       0.73652250      1.29618023     -0.42871628
C       1.56336347      0.19286307     -0.48177415
O       2.59580008      0.16848437     -1.08705128
N       0.97952897     -0.81223642      0.25903639
H      -1.14981501     -0.38385889     -1.39238233
H      -2.38534831     -0.06437546     -0.07965631
H      -0.64561347     -0.81348593      1.67204251
H      -0.84624765      1.76413941      0.85279804
H       1.29072282     -1.75677494      0.11105862
