10
b3lypvtz=-228081.74066272
N      -3.44107851      0.62065577      0.00004501
C      -2.43557780      0.05471992      0.00002213
C      -1.21563035     -0.66955898     -0.00000619
C      -0.01899122     -0.06533500      0.00000450
N       1.13717608     -0.83839042     -0.00002528
C       2.27537924     -0.31474162     -0.00001816
F       2.51283960      1.01160445      0.00001766
H      -1.27496452     -1.75032606     -0.00003805
H       0.05630764      1.01680313      0.00003561
H       3.19805484     -0.88081819     -0.00004023
