17
b3lypvtz=-194367.64980151
C       3.11521338     -0.66019657     -0.08460421
C       1.79539808     -0.59766372      0.03677198
C       1.04157951      0.55992453      0.62108496
C       0.00080109      1.15109358     -0.33337046
O      -1.02080809      0.21435241     -0.67906673
C      -2.04312958      0.07937444      0.20595175
C      -2.90883911     -0.92531893      0.15926791
H       3.75735955      0.14796280      0.24722794
H       3.60417563     -1.52348081     -0.51646143
H       1.18895212     -1.42874211     -0.30821296
H       0.52530117      0.24258184      1.53386439
H       1.73598024      1.35433022      0.90799426
H      -0.45371045      2.04406355      0.10889916
H       0.46638218      1.43599458     -1.27637193
H      -2.12480992      0.87469939      0.94309871
H      -3.73136024     -0.95499919      0.85686285
H      -2.82195057     -1.71361404     -0.57494120
