14
b3lypvtz=-201263.30280948
C       3.29706717      0.09162040      0.04026557
C       2.08349205     -0.33549777      0.40509271
C       0.84245891      0.18379967     -0.11791281
C      -0.36914995     -0.25907307      0.25923132
N      -1.52507278      0.28190552     -0.28928465
N      -2.57428391     -0.24402693      0.15771287
N      -3.69231802      0.32076408     -0.32061508
H       4.19715045     -0.33170023      0.46356972
H       3.42209174      0.87843955     -0.69369101
H       2.00409489     -1.12719578      1.14449982
H       0.89005515      0.97636537     -0.85685503
H      -0.48960154     -1.04900387      0.99704640
H      -3.58727660      0.88947733     -1.15511580
H      -4.49890756     -0.27607429     -0.25264403
