16
b3lypvtz=-227744.28378226
C      -0.36999302     -0.91681419      0.68142791
C       0.88307681     -0.62006869     -0.18326669
C       0.08155029      0.54067527     -0.86589226
C      -1.21195631     -0.13539549     -0.35132883
O      -2.17062031      0.80977028      0.10187767
O       0.32402051      1.76397634     -0.19812589
N       2.11223521     -0.34626465      0.52418788
H      -0.62535771     -1.95719717      0.87766582
H      -0.31264694     -0.37308744      1.62539733
H       1.05476883     -1.42565736     -0.89839264
H       0.18903661      0.66825231     -1.94650612
H      -1.64983315     -0.79108975     -1.10871276
H      -2.69809125      0.41542829      0.80245270
H      -0.53674538      2.09568790      0.09212947
H       2.89271902     -0.29225889     -0.12011737
H       2.03783679      0.56404324      0.96720376
