16
b3lypvtz=-204422.7390648
C      -1.78743280     -0.57868867      0.18522283
C      -1.57450847      0.24000902     -1.07486470
C      -0.56641829      0.26503342      0.04585961
C       0.77743549     -0.36650295     -0.16141077
C       1.80185189     -0.39231838      0.90689860
N       1.89639556      0.59004262     -0.19031142
O      -0.52259503      1.40365984      0.86240895
H      -1.68424882     -1.65415699      0.12807903
H      -2.53346755     -0.22926496      0.88486682
H      -1.32953624     -0.27992394     -1.99200020
H      -2.18138470      1.12587767     -1.19573259
H       0.79356231     -1.18191838     -0.87653286
H       2.50274802     -1.21805717      0.92076985
H       1.57131008      0.03711435      1.87236332
H       2.59859943      0.32081779     -0.86907120
H       0.23768913      1.91827674      0.55345471
