16
b3lypvtz=-202015.64938206
C       3.44662040      0.32358988      0.14411035
N       2.35158314     -0.27422851      0.40671859
N       1.27137890      0.02482255     -0.32497491
N       0.07857265     -0.45455536      0.08801159
C      -0.97283947     -0.01773396     -0.48374654
C      -2.32839685     -0.52397079     -0.10502480
C      -3.25719294      0.58442229      0.40883546
H       4.31796514      0.05127060      0.72176151
H       3.54839855      1.08612624     -0.63204900
H       1.29552540      0.83252414     -0.95053386
H      -0.91801715      0.74856993     -1.26773683
H      -2.20268073     -1.30024741      0.64986944
H      -2.79013644     -0.99592936     -0.97955939
H      -4.24458358      0.18380804      0.64185975
H      -2.85498683      1.04231181      1.31342990
H      -3.38676721      1.37217391     -0.33637925
