17
b3lypvtz=-191983.6568286
C      -1.92146387      0.19613071     -0.55501221
C      -1.06366696     -0.18761967      0.65100592
C       0.10548514      0.80167534      0.87937030
C       1.27798085      0.08411820      0.25991122
C       0.93780556     -1.18506785      0.02086402
N      -0.38099076     -1.49561409      0.45547983
N       2.54101038      0.69735726      0.21001889
H      -2.41252337      1.15841273     -0.39343116
H      -2.70239011     -0.54720390     -0.73161529
H      -1.30800000      0.27200322     -1.45535223
H      -1.70151049     -0.24743238      1.53414905
H       0.28985817      0.97595862      1.94460557
H      -0.09294007      1.77896403      0.42677380
H       1.56926343     -1.97753835     -0.35484036
H      -0.88241556     -2.08985983     -0.19381330
H       2.51197829      1.62365579     -0.19719554
H       3.23251935      0.14206019     -0.27504644
