16
b3lypvtz=-204444.02673384
C       2.21312098     -1.55395969      1.33717490
O       1.63766712     -0.72729168      0.33759580
C       0.38034614     -0.26742750      0.61256181
C      -0.34559158      0.34725132     -0.34096655
C      -1.66894783      0.85031128     -0.01584587
C      -2.44895825      1.58083799     -0.81791492
N       0.16868193      0.57798103     -1.62389546
H       3.21325629     -1.81181023      0.99693211
H       2.28528478     -1.02376094      2.29216061
H       1.63153622     -2.47026881      1.47810098
H       0.02391253     -0.37339657      1.62881102
H      -2.03105109      0.58250306      0.97076105
H      -2.12609606      1.90366268     -1.79887853
H      -3.43170815      1.89932760     -0.50035214
H       1.01022941      0.05039986     -1.80487094
H      -0.51168243      0.43564059     -2.35697546
