20
b3lypvtz=-205971.09121298
C      -0.05149913     -0.30308402     -1.35628969
C      -0.05086819     -0.27170540      0.17422995
C       0.64686089     -1.50695965      0.75187985
C      -1.48309020     -0.19499453      0.72560282
N      -2.18759780      0.98516337      0.22689973
O       0.55858902      0.93587311      0.68349342
C       1.87670321      1.24230866      0.27829364
H      -0.61115524     -1.17124032     -1.70749403
H      -0.53037228      0.58901567     -1.75429331
H       0.95937571     -0.38257013     -1.75729628
H       0.67515937     -1.45498615      1.84092844
H       1.66943976     -1.59981962      0.38533680
H       0.11495620     -2.41472764      0.46263822
H      -2.02575941     -1.08546511      0.40084807
H      -1.41162652     -0.23465251      1.82129021
H      -3.13340434      1.00970280      0.58652941
H      -1.71569011      1.81648820      0.56246927
H       2.16070529      2.14521844      0.81737434
H       1.94901275      1.44415749     -0.79480767
H       2.59026102      0.45227732      0.53483383
