21
b3lypvtz=-172607.41343917
C      -2.24429206     -1.28026768      0.17909554
C      -0.82125144     -1.18923987     -0.28479923
C       0.04862383     -0.19306166     -0.09611090
C      -0.28499200      1.08972066      0.63394117
C      -0.71193953      2.22354088     -0.31210370
C       1.45749709     -0.29761847     -0.63974373
C       2.51429872     -0.59007915      0.43616746
H      -2.92477728     -1.37453842     -0.67252049
H      -2.56193447     -0.41551877      0.75915604
H      -2.39665361     -2.17140631      0.79520365
H      -0.47407305     -2.05203137     -0.84834270
H       0.58881950      1.41801077      1.20289117
H      -1.07399759      0.92212644      1.36763025
H       0.05756018      2.43271357     -1.05713815
H      -0.89649381      3.14583313      0.24215257
H      -1.62577309      1.96035039     -0.84660135
H       1.49523220     -1.08338094     -1.39694864
H       1.72335091      0.63445193     -1.14953385
H       3.51289023     -0.63366246     -0.00272011
H       2.52939029      0.17870099      1.21036897
H       2.31564697     -1.54663366      0.92197602
