17
b3lypvtz=-194368.62293693
C      -2.07946998     -1.03101208     -0.39658730
C      -0.76164036     -0.80953310      0.31862090
O       0.38757086     -1.27452232     -0.45068507
C       0.99252432      0.05317031     -0.45713410
C       2.36880043      0.07762102      0.17718744
C      -0.17769800      0.58526747      0.33943028
C      -0.53387444      1.75564348      0.83594737
H      -2.90481965     -0.63506869      0.19912775
H      -2.24798585     -2.09867944     -0.54618243
H      -2.08262976     -0.53777957     -1.36862247
H      -0.77934226     -1.29628106      1.30024245
H       1.04284421      0.43907358     -1.48149953
H       3.05424239     -0.55061899     -0.39391126
H       2.76416672      1.09570338      0.18475305
H       2.33112746     -0.28986692      1.20271522
H      -1.45280230      1.87812655      1.39599151
H       0.07908620      2.63855638      0.70250618
