19
b3lypvtz=-195130.98811869
C       2.43002120      0.39611865     -0.00510661
O       1.50380318     -0.64451521      0.23696180
C       0.23372391     -0.43165519     -0.33057168
C      -0.74577113     -1.59737847     -0.13369185
C      -1.87119708     -0.55703702      0.09585017
C      -0.78208476      0.51557919      0.37635108
C      -0.99667626      1.92957260     -0.13527438
H       2.55545920      0.57797778     -1.08007611
H       2.12862441      1.33479162      0.47297175
H       3.38476697      0.08227980      0.41388222
H       0.33673803     -0.16042020     -1.39124262
H      -0.85611823     -2.31008172     -0.94940120
H      -0.49887095     -2.13605492      0.78091510
H      -2.42103045     -0.33853369     -0.82097672
H      -2.58841091     -0.76030960      0.88939799
H      -0.54530096      0.52303409      1.44327542
H      -1.18228788      1.93183241     -1.21230519
H      -1.85912170      2.39591689      0.34723228
H      -0.13015459      2.56659898      0.05461254
