14
b3lypvtz=-203686.57465005
C       0.59942303      0.12462465      1.89787856
C       0.77343825      0.28023972      0.58342794
C      -0.19128417     -0.04803638     -0.47504422
C      -0.35023348      0.85035236     -1.62326123
N       0.15882907      2.00211929     -1.81130760
C      -0.89152326     -1.20315602     -0.49165917
O      -0.85428111     -2.19145443      0.41582519
H      -0.34341702     -0.19763932      2.32422694
H       1.38899569      0.36410774      2.59701610
H       1.72432469      0.67768445      0.23770248
H      -0.99627843      0.46579093     -2.41635188
H       0.73134885      2.29269243     -1.01681949
H      -1.55873006     -1.43981076     -1.31074637
H      -0.19051204     -1.97751467      1.08931275
