15
b3lypvtz=-212134.46279718
N      -0.56013015      1.46149777     -0.19949240
C      -0.43110116      0.19750002     -0.14521901
C      -1.58329393     -0.79056624     -0.05504741
N      -2.85950842     -0.12805712      0.19618983
N       0.80676616     -0.45747721     -0.21393987
C       1.83956541      0.20953504      0.14267224
N       3.09030330     -0.28312956      0.03148230
H      -1.55432564      1.68864686     -0.15970534
H      -1.63604638     -1.31175190     -1.01421206
H      -1.31054852     -1.55364312      0.68468656
H      -2.97872028      0.06802057      1.18236361
H      -3.63459546     -0.71115725     -0.08879204
H       1.77055791      1.21836418      0.55327361
H       3.88238639      0.23185888      0.36583125
H       3.22926475     -1.19988391     -0.35779727
