16
b3lypvtz=-209459.26782174
C       3.01274241     -0.16166775      0.22997656
C       1.82770271     -0.72508611     -0.00452105
C       0.57436092     -0.00575793     -0.12092600
F       0.68895557      1.34046307      0.03227987
C      -0.62593433     -0.53712972     -0.35713883
C      -1.91733357      0.21031347     -0.46684771
C      -2.96045929     -0.25292502      0.56043805
H       3.11584280      0.90731487      0.35211435
H       3.90853622     -0.76160419      0.30479074
H       1.74671647     -1.79904073     -0.12386542
H      -0.65629969     -1.61497350     -0.46767830
H      -1.73459868      1.27880069     -0.35674865
H      -2.32665556      0.06450015     -1.47248923
H      -2.60883394     -0.08204633      1.57869757
H      -3.17272259     -1.31877437      0.45558865
H      -3.89860643      0.28857840      0.43000240
