15
b3lypvtz=-191221.48197674
N       2.20958165     -0.56516919     -0.08104360
C       1.00966337     -0.13989418     -0.03599735
N       0.52161140      1.10478293      0.33385322
C      -0.83929783      1.35887796     -0.13108583
C      -1.36493846     -0.03513836     -0.43469400
C      -1.26172277     -1.05252145      0.65781889
C      -0.17594153     -0.97166713     -0.39251022
H       2.87822434      0.16639828      0.15913876
H       1.16068868      1.86816626      0.47767631
H      -1.42718776      1.87406470      0.63359195
H      -0.85313160      1.97260691     -1.03914231
H      -2.13730299     -0.13704808     -1.18248867
H      -1.02586176     -0.72457254      1.66165721
H      -1.92202719     -1.90646851      0.60055287
H      -0.02729255     -1.78866361     -1.08010324
