15
b3lypvtz=-214501.39826163
C      -1.65404450      0.71525359      0.37989046
C      -1.06560731     -0.72470260      0.46914474
C       0.27969214     -0.04322892      0.45049097
C       1.52974832     -0.45999715      0.27103884
N       2.68350835      0.34198399      0.33306258
N      -0.29476066      1.24927930      0.67995570
O      -1.30031825     -1.60445464     -0.61429670
H      -2.00264685      0.92090485     -0.63409751
H      -2.41408059      1.00299543      1.10728896
H      -1.29921683     -1.21590687      1.41902336
H       1.70725790     -1.51516730      0.11425521
H       3.36045711      0.14152680     -0.38906418
H       2.49761218      1.33336595      0.37237244
H       0.03208368      2.01421100      0.09994359
H      -2.05968470     -2.15606342     -0.40416940
