17
b3lypvtz=-215270.73392531
C       1.05450135     -0.59789752      1.23128462
C       0.86962224      0.85009153      0.84738565
C       0.22419352     -0.24203423      0.02055493
C      -1.27669295     -0.43197062      0.06765870
N      -1.91723374      0.39152405     -0.96474261
N       0.85909403     -0.42462230     -1.26734644
O       1.92585520      1.55943648      0.28514730
H       2.03572687     -1.01650582      1.05055110
H       0.54422044     -0.98307296      2.10481875
H       0.24452629      1.47032518      1.47851220
H      -1.63469772     -0.22605362      1.08553914
H      -1.51452899     -1.47855145     -0.14761980
H      -1.89315696      1.37076170     -0.70396262
H      -2.88965227      0.13728594     -1.08229830
H       0.21535280     -0.11315369     -1.98842713
H       1.07562322     -1.39910811     -1.44009216
H       2.07724667      1.13354544     -0.57696333
