17
b3lypvtz=-191954.59233425
C       2.57335818      1.25423868     -0.15988763
C       2.07400245      0.17475468      0.43032808
C       1.39379129     -0.96503678     -0.27113072
C      -0.05827055     -1.16554060      0.17387425
N      -0.87575027     -0.02917331     -0.21955527
N      -2.21103519     -0.19331242     -0.05444398
C      -2.95285248      0.83427545      0.06696681
H       2.52675611      1.38513278     -1.23486717
H       3.05394546      2.04048304      0.40756585
H       2.14640898      0.08644840      1.51207357
H       1.93442234     -1.89227170     -0.05659358
H       1.42209399     -0.81165331     -1.35182301
H      -0.48018977     -2.04773008     -0.30645542
H      -0.09236994     -1.33997481      1.25897623
H      -0.50714611      0.87202210      0.07656651
H      -2.56398040      1.85595275      0.08587803
H      -4.02122610      0.68429713      0.14116444
