17
b3lypvtz=-191975.52278725
C       2.97825310     -0.12917640     -0.29305805
C       1.57231470     -0.42604780      0.21149690
N       0.57872509      0.29497951     -0.57802840
C      -0.61503695      0.27490329     -0.17938337
C      -1.90910198      0.85793647     -0.73259980
C      -2.61980462      0.04966529      0.39061020
N      -1.28269902     -0.28559493      0.91407908
H       3.72684833     -0.67402933      0.28556619
H       3.07362575     -0.41478019     -1.34122380
H       3.19253812      0.93757638     -0.21775475
H       1.49547101     -0.15533301      1.27371601
H       1.38732637     -1.50782262      0.15347845
H      -2.14107324      0.55744214     -1.75165723
H      -1.98833098      1.93967445     -0.64386629
H      -3.18535872     -0.80838014      0.02225639
H      -3.23519810      0.62052882      1.08587918
H      -1.02829887     -1.13154194      1.40058929
