12
b3lypvtz=-200528.60745716
N      -2.03217143      1.54947111     -0.07390803
C      -1.65879047      0.46811601      0.03715295
C      -1.23829685     -0.92859993      0.21318413
N       0.00001257     -1.25344414     -0.48393366
C       1.23830541     -0.92857694      0.21320217
C       1.65878690      0.46814196      0.03715583
N       2.03216769      1.54949593     -0.07391594
H      -1.19277875     -1.12750794      1.29404331
H      -2.03255398     -1.55630832     -0.19343513
H       0.00002064     -2.22839803     -0.74249784
H       1.19276944     -1.12747243      1.29406144
H       2.03257982     -1.55627928     -0.19339224
