13
b3lypvtz=-237067.42427082
C       1.69431003     -0.10564926     -1.50246285
N       0.60110782     -0.50488684     -0.97766031
C       0.03039355      0.13398853      0.10849043
N       0.63863468      1.25869041      0.72636840
C      -1.10885336     -0.45138452      0.55259640
O      -1.81797019      0.02541556      1.59141000
O      -1.60856794     -1.58226941      0.02500730
H       2.25597163      0.74536855     -1.11991812
H       2.08954367     -0.64713265     -2.35479287
H       0.32534754      1.37300381      1.68034461
H       0.45397723      2.12337825      0.22798889
H      -2.55610150     -0.57491605      1.75136880
H      -0.99799317     -1.79370636     -0.70884068
