14
b3lypvtz=-203704.64108706
C      -2.13536694     -0.43235078     -0.34164075
C      -0.80898632      0.32116420     -0.37584051
C      -0.83012751      1.59915458      0.48585571
C       0.33816977     -0.57046102      0.05200564
O       0.23516817     -1.67861242      0.51135692
C       1.69034328      0.01498937     -0.12561761
N       2.73663889      0.47089881     -0.27679767
H      -2.10278262     -1.32626663     -0.96326685
H      -2.93695532      0.21132219     -0.70416606
H      -2.37894930     -0.74562675      0.67363538
H      -0.57993529      0.62394293     -1.40496646
H      -1.04263979      1.35778721      1.52847279
H      -1.61277033      2.26693737      0.12686279
H       0.11671831      2.13728493      0.44273869
