11
b3lypvtz=-236305.3922401111
C      -1.66276664      0.89816388      0.04474484
O      -0.26835417      0.56998006     -0.06210249
C       0.04392804     -0.72481555      0.18326433
O      -0.76243429     -1.57680719      0.47376138
C       1.46904729     -0.97767236      0.05734856
N       2.29732625     -0.01954799     -0.26020902
N       3.00238531      0.81263881     -0.53438254
H      -2.24788416      0.31910996     -0.66790272
H      -2.02722577      0.69646560      1.05079272
H      -1.72950825      1.95855882     -0.17965922
H       1.88548640     -1.95607403      0.22055652
