15
b3lypvtz=-193615.51830153
C      -2.73063170      0.08798632      0.14433159
C      -1.53656954     -0.07165533     -0.41321762
C      -0.26957539     -0.30678102      0.33088598
C       0.69969612     -1.45652086     -0.10674823
C       1.92024404     -0.49966289      0.00317046
C       0.92381253      0.65813556      0.10186802
O       1.00536295      1.83983912     -0.05301412
H      -2.86635733      0.04815078      1.21869552
H      -3.61453198      0.26878371     -0.45270933
H      -1.44635913     -0.01924530     -1.49481675
H      -0.46209156     -0.35827144      1.40682064
H       0.51397900     -1.77115018     -1.13269314
H       0.70795922     -2.33328027      0.53586133
H       2.48784134     -0.61960726      0.92808909
H       2.61994042     -0.45306594     -0.83053343
