15
b3lypvtz=-191166.8865127
C      -0.61361186     -1.08640735      0.43402588
C      -1.50992133     -0.40044720     -0.60995341
C      -0.47995135      0.66836872     -0.85373709
C       0.43491784      0.01117804      0.15759780
C       1.89916364     -0.11679321      0.07644393
N       1.26851207      0.66377471      1.16362339
N      -1.77886221      0.98444159     -0.25979544
H      -0.26883579     -2.07587995      0.13459751
H      -1.01748667     -1.13448660      1.44672635
H      -2.16338890     -0.88772333     -1.31872412
H      -0.19313610      1.17425635     -1.76624457
H       2.38355582     -1.03214641      0.39476012
H       2.41438265      0.41837147     -0.71366249
H       1.34573936      1.65868243      0.97379426
H      -1.72107717      1.15481073      0.74054790
