18
b3lypvtz=-205202.28570696
C      -0.94548496     -1.34235346      0.12582036
C      -0.59663216      0.10806501     -0.12893628
C      -1.76697705      1.05912844      0.01405298
N       0.34116817      0.36515012     -1.24476244
C       0.76291504      0.64875338      0.14041080
C       1.96013452     -0.16022642      0.62287393
O       2.22207686     -1.28695023     -0.19107389
H      -0.07871570     -1.98843573      0.01677938
H      -1.71807134     -1.67177784     -0.57313297
H      -1.34035778     -1.46290432      1.13731300
H      -2.55855001      0.80405214     -0.69515326
H      -1.46870060      2.09360186     -0.16680235
H      -2.19445367      1.00385635      1.01734021
H       0.10206304      1.21282940     -1.74702782
H       0.79779546      1.69125504      0.44283153
H       2.83462788      0.50365165      0.64390796
H       1.79589520     -0.51105932      1.64570877
H       1.85136711     -1.06663608     -1.06024992
