13
b3lypvtz=-237115.67901518
C       2.60802982     -0.18419039      0.00004349
N       1.20430173     -0.53780098      0.00006325
C       0.21128391      0.36349508     -0.00000256
O       0.32925640      1.58090099     -0.00013933
C      -1.17893211     -0.31440951     -0.00011940
N      -2.17439383      0.58690768      0.00003296
O      -1.30518832     -1.52781645     -0.00027153
H       3.10917045     -0.57567224     -0.88693670
H       3.10926087     -0.57598817      0.88682948
H       2.68174466      0.90046644      0.00022439
H       0.90706231     -1.50310098      0.00008441
H      -1.93129138      1.56446716     -0.00009764
H      -3.13205152      0.28388736     -0.00029383
