16
b3lypvtz=-204457.11868362
C       2.64543518     -0.50708975      0.00813547
C       1.32951965     -0.74347202      0.08335590
C       0.26851202      0.24531756      0.00533853
C       0.64157921      1.70204583     -0.06714438
C      -1.03001867     -0.13266182      0.00886691
N      -1.53830948     -1.42381538     -0.15937194
O      -2.02720047      0.79442579      0.13707148
H       3.04956070      0.48449956     -0.14310977
H       3.35906485     -1.31393737      0.10000205
H       1.02827248     -1.77356337      0.25058587
H       1.18399099      2.01611456      0.82886975
H      -0.23774245      2.33180249     -0.16813643
H       1.29955896      1.89311208     -0.91968327
H      -0.84593128     -2.11777836     -0.39117910
H      -2.12638310     -1.73583388      0.60408996
H      -2.80373958      0.45196509     -0.32307701
