12
b3lypvtz=-252147.528628
C      -2.40382015     -0.43531617      0.04380169
N      -1.02369077     -0.89732311     -0.03184596
C      -0.12768443     -0.01765155     -0.15799089
N       1.21449754     -0.39663687     -0.23659082
C       2.12462549      0.45957951     -0.36281422
O       3.42039547      0.18615167     -0.44469909
F       1.96219752      1.78196103     -0.43702610
H      -3.06409981     -1.29315311      0.15556515
H      -2.56411066      0.22769511      0.89969862
H      -2.70148174      0.10351661     -0.86109345
H      -0.34574178      1.05688554     -0.21121062
H       3.50891330     -0.77570865     -0.38851369
