15
b3lypvtz=-216936.34231808
C       1.96914846     -0.49591827      0.76050782
C       1.14318233     -0.15808919     -0.47443708
C      -0.11684246     -1.01529040     -0.62727943
C      -1.20148311     -0.17276894      0.03164353
O      -2.30072141     -0.52748011      0.36489454
C      -0.61640136      1.22475581      0.20141156
O       0.65540147      1.20424668     -0.42037626
H       2.77732375      0.22532529      0.87943241
H       2.40577250     -1.49228262      0.66743539
H       1.36032650     -0.48044984      1.66734489
H       1.77655711     -0.20210344     -1.35985746
H      -0.06068812     -2.00333494     -0.17407934
H      -0.38723077     -1.14066399     -1.67895515
H      -1.24677584      1.97593007     -0.27705751
H      -0.55724906      1.46161490      1.27174009
