15
b3lypvtz=-193586.02952919
C       3.54080795     -0.02109983      0.25676875
C       2.43182555      0.49760058     -0.27520957
C       1.12773734     -0.04364643     -0.12917361
C       0.00656866     -0.47637234     -0.03124917
C      -1.34837319     -1.01790581      0.09150894
O      -2.36098530     -0.17826674     -0.43291882
C      -2.54617567      1.01892100      0.30107908
H       4.50180156      0.44729436      0.09695530
H       3.51632378     -0.92012494      0.85745021
H       2.50183134      1.40049385     -0.87407251
H      -1.41924179     -1.95368386     -0.46640991
H      -1.55137585     -1.24898836      1.14711146
H      -1.65026578      1.64723727      0.28482686
H      -2.81045793      0.80854185      1.34496624
H      -3.36674969      1.55437940     -0.17200226
