16
b3lypvtz=-204443.34991467
C      -1.51302642      0.90312199      0.86504769
C      -0.95337909      0.09992777     -0.03368090
C      -1.64677141     -1.12138528     -0.57637216
C       0.42132058      0.37000209     -0.60925015
O       0.93073779      1.67961426     -0.36165059
C       1.48565999     -0.62773724     -0.15374275
N       1.46975378     -1.36871724      0.87095187
H      -2.49952429      0.70063241      1.26134633
H      -1.02335264      1.80431324      1.20648501
H      -1.78406334     -1.03546364     -1.65834408
H      -1.06610375     -2.03080665     -0.40658471
H      -2.62719015     -1.25210542     -0.12103612
H       0.35048333      0.30584992     -1.69999421
H       1.22039206      1.72575090      0.55621426
H       2.38884045     -0.62355048     -0.76700254
H       0.58112411     -1.27918963      1.37215903
