17
b3lypvtz=-215267.31846654
C      -2.47780161     -0.74534046      0.22440490
C      -1.43658208      0.32053090      0.56170742
C      -0.38839773      0.53127502     -0.53768154
O       0.36874938      1.68850874     -0.15737178
C       0.47082877     -0.69354004     -0.78332722
N       1.56531230     -1.04872515     -0.22878397
N       2.19475041     -0.25431681      0.68383721
H      -3.22231075     -0.81886883      1.01763231
H      -3.00549085     -0.50540445     -0.70145870
H      -2.02392004     -1.72997351      0.10578226
H      -0.92433485      0.06264180      1.49179781
H      -1.92464191      1.28389369      0.72670295
H      -0.92346748      0.74298765     -1.47364628
H       1.09280501      1.79975102     -0.78251114
H       0.10161893     -1.38944615     -1.53078743
H       2.80045935     -0.79992949      1.27314237
H       1.64229216      0.44670207      1.16156082
