13
b3lypvtz=-213764.73619423
C      -1.58187625      0.19255362      0.13149132
C      -0.34957103     -0.67162971     -0.05927069
N      -0.21337816     -1.93616276     -0.15640637
C       0.76440780      0.26695144     -0.10575353
C       0.25244139      1.50130837      0.06078890
O      -1.11026518      1.54766950      0.22320242
N       2.06167862     -0.16813695     -0.35064884
H      -2.11939373     -0.05225231      1.04880246
H      -2.26690889      0.11936539     -0.71508148
H      -1.10387540     -2.42683516     -0.09171088
H       0.74296166      2.46114589      0.08970443
H       2.13682601     -1.16746377     -0.21243092
H       2.78695314      0.33348645      0.13731317
