16
b3lypvtz=-181117.36061663
C      -3.12522042      0.42802276      0.16663134
C      -1.68246088      0.65630282     -0.16746833
C      -0.66637792      0.03083817      0.43019788
N       0.69124736      0.28902875      0.24722716
C       1.60390252     -0.85101373      0.28518270
C       2.99969915     -0.42760950      0.22490693
C       4.14619727     -0.08574106      0.14950825
H      -3.23935364     -0.35643391      0.91674256
H      -3.70111550      0.13239975     -0.71520913
H      -3.59954662      1.33211042      0.56113821
H      -1.46576172      1.40197530     -0.92806795
H      -0.86320276     -0.72515053      1.18550655
H       0.88922653      0.91920567     -0.51734625
H       1.43143204     -1.39041794      1.22109980
H       1.41961379     -1.57093181     -0.52635064
H       5.16172082      0.21741485      0.09265420
