20
b3lypvtz=-182658.57761187
C      -2.23687944     -0.29400928      0.30988495
C      -0.74761140     -0.39351897      0.52824094
N       0.11113895     -0.74438735     -0.59616870
C       1.09865063     -1.79737295     -0.42554598
C       0.28179635      0.57496426      0.03131853
C      -0.09887472      1.74257616     -0.85575891
C       1.48394458      0.86455729      0.91067785
H      -2.70819577      0.28879968      1.10491182
H      -2.68951724     -1.28839437      0.31423494
H      -2.47299088      0.17201163     -0.64469832
H      -0.48088686     -0.86155482      1.47653073
H       1.93070733     -1.63431849     -1.11281047
H       0.63667560     -2.75156909     -0.68473759
H       1.50331769     -1.88600637      0.59073900
H       0.75863238      2.05181102     -1.45905998
H      -0.41273362      2.60344857     -0.25990472
H      -0.90282118      1.47732259     -1.53817898
H       1.71299438      0.05022867      1.59557521
H       1.29796729      1.75647701      1.51254306
H       2.37245992      1.06061881      0.30442762
