13
b3lypvtz=-239467.07689325
C      -3.01207920     -0.29470339     -0.00015928
O      -1.75745538      0.38513851      0.00017541
C      -0.66842207     -0.39411351     -0.00003476
C       0.58505453      0.10211139     -0.00000895
O       0.86765229      1.42526090      0.00018151
C       1.71614098     -0.80547163     -0.00016232
O       2.86193532     -0.38537195     -0.00004016
H      -3.11877268     -0.91394171     -0.89404818
H      -3.11870617     -0.91497286      0.89301723
H      -3.77870109      0.47468896      0.00032320
H      -0.81107432     -1.46881483     -0.00018901
H       1.83922564      1.47697421      0.00022510
H       1.49172214     -1.88556709     -0.00015679
