17
b3lypvtz=-192000.61161375
N      -2.38112293     -0.14669603      0.14884519
C      -1.12272445     -0.03416043     -0.04688673
C      -0.36963852      1.27147265     -0.22834695
C       1.06365980      1.23190733      0.31219741
C       1.79057473     -0.00433686     -0.21430311
C       1.03507284     -1.26507165      0.18607092
N      -0.36884161     -1.17934427     -0.20515656
H      -2.82406115      0.76778209      0.16291972
H      -0.34030526      1.48097272     -1.30265544
H      -0.94373718      2.07214942      0.23769414
H       1.04402789      1.20330172      1.40613528
H       1.59355012      2.14385944      0.03122446
H       1.86216294      0.04680813     -1.30444931
H       2.80836499     -0.05538819      0.17667684
H       1.46991592     -2.14014495     -0.29932531
H       1.13600361     -1.41476622      1.27085258
H      -0.91944874     -2.00962689     -0.03819211
