12
b3lypvtz=-179565.13126311
C       2.49097863      0.40440052      0.72061484
C       1.43998238      0.21777420      0.17651689
C       0.14803602     -0.05073335     -0.46474996
C      -0.61887707     -1.11126724      0.32805441
N      -0.91367047     -2.21127057     -0.21104834
C      -0.66665858      1.16227505     -0.59645131
C      -1.36368906      2.13199649     -0.69274374
H       3.42542201      0.57681747      1.19379852
H       0.32109557     -0.47748156     -1.45715606
H      -0.86716653     -0.82334020      1.35348378
H      -1.42200484     -2.81517233      0.43467002
H      -1.97344807      2.99600152     -0.78498905
