15
b3lypvtz=-214546.32363525
C      -3.13213136      0.44408583      0.00080985
C      -2.01038735     -0.58344679     -0.00120703
N      -0.69709887      0.06665126     -0.00103262
C       0.34072177     -0.64996429      0.00072624
C       1.72111740     -0.04460730      0.00082172
N       1.74486551      1.30675881     -0.00096079
O       2.70618082     -0.76313446      0.00230317
H      -4.10569528     -0.04830294      0.00050795
H      -3.07031254      1.08100874      0.88381117
H      -3.07102289      1.08355135     -0.88039981
H      -2.09100276     -1.22958564     -0.88107886
H      -2.09025789     -1.23258537      0.87653386
H       0.34656489     -1.74514094      0.00230410
H       2.62683444      1.78679264     -0.00114608
H       0.87552012      1.81294010     -0.00220286
