19
b3lypvtz=-171823.76875854
C      -1.75049555     -1.07684413     -0.44509579
C      -0.76835490     -0.07775015      0.09152793
C      -0.78017276      1.41908218     -0.23792641
C       0.78017326      1.41908177     -0.23792657
C       0.76835469     -0.07775052      0.09152788
C       1.75049484     -1.07684502     -0.44509583
C      -0.00000011     -0.28360192      1.36863338
H      -1.42393442     -2.10065859     -0.25189424
H      -2.73280961     -0.95454605      0.02095917
H      -1.88209383     -0.96620062     -1.52464284
H      -1.19047616      1.63108856     -1.22542448
H      -1.27554299      2.06599609      0.49013618
H       1.19047651      1.63108778     -1.22542478
H       1.27554403      2.06599553      0.49013579
H       2.73280897     -0.95454744      0.02095913
H       1.42393318     -2.10065931     -0.25189427
H       1.88209318     -0.96620157     -1.52464289
H       0.00000003      0.47621543      2.14525756
H      -0.00000034     -1.29922303      1.74587010
