14
b3lypvtz=-227014.62458253
C      -2.77193660     -0.69164453     -0.00001878
C      -1.53078872      0.17677825      0.00001680
O      -1.58955570      1.39337712     -0.00001015
N      -0.33899507     -0.50176526      0.00002363
C       0.90215845      0.15055532     -0.00000150
C       2.07236012     -0.48443715      0.00002095
O       3.30478426      0.10588125     -0.00000166
H      -2.56290582     -1.76139221      0.00045926
H      -3.36859151     -0.44667416     -0.87853139
H      -3.36912331     -0.44597353      0.87792961
H      -0.35769271     -1.50720638      0.00007501
H       0.81522600      1.22846441     -0.00003962
H       2.15764850     -1.56376695      0.00006105
H       3.20503112      1.06463582     -0.00002821
