15
b3lypvtz=-247844.87426527
C      -2.65336189     -0.47339161     -0.20410230
C      -1.17957797     -0.66198738     -0.02676194
C      -0.25098152      0.27771355      0.14782313
C      -0.47728134      1.76274507      0.21752760
C       1.19115284     -0.11170260      0.32680183
F       1.40276644     -1.45348231      0.19688146
F       1.97078306      0.50644787     -0.62736537
H      -2.96720239      0.56716958     -0.15784885
H      -2.97354173     -0.87865216     -1.16792487
H      -3.20300502     -1.02807358      0.56117166
H      -0.84277286     -1.69170321     -0.04725592
H      -1.53171751      2.02065519      0.16762445
H      -0.07604378      2.17488026      1.14826651
H       0.03845346      2.27050991     -0.59966801
H       1.59403620      0.18876244      1.29882263
