16
b3lypvtz=-204433.50519464
O       2.12802631     -0.56092867      0.24837786
C       0.75191180     -0.49231290      0.62006638
C       0.32955242      0.99596450      0.73660241
C      -0.72920230      1.01082829     -0.38667905
C      -1.54462627     -0.26929616     -0.07756439
C      -0.20683711     -0.90440113     -0.52087882
N      -0.10397226      0.22157818     -1.49881763
H       2.38097910     -1.48686780      0.17514557
H       0.57944173     -1.06045427      1.53939976
H      -0.07291756      1.25409523      1.71646763
H       1.17638123      1.64855672      0.52558298
H      -1.19735611      1.95875519     -0.64121382
H      -1.88610540     -0.43019452      0.94442405
H      -2.33830195     -0.44467291     -0.79828158
H      -0.13113592     -1.92266770     -0.90101069
H       0.86436228      0.48201793     -1.68172066
