14
b3lypvtz=-224566.68762867
N      -2.95808375     -0.67912023     -0.03875880
N      -1.87754335     -0.22749705      0.39430935
N      -1.08155736      0.27473641     -0.55504038
C      -0.01760064      1.17338218     -0.13175711
C       1.08749912      0.45309937      0.65304204
C       1.89438762     -0.50448656     -0.18720605
O       3.09539224     -0.59301854     -0.14525497
H      -3.44707319     -1.06129322      0.77264361
H      -1.52701474      0.41627275     -1.45754843
H      -0.41404184      1.98963298      0.47872334
H       0.38997434      1.62060453     -1.03916404
H       0.61438924     -0.11719156      1.45841386
H       1.76826367      1.17255151      1.10858853
H       1.30542265     -1.14882958     -0.87054297
