13
b3lypvtz=-216155.65941941
C       1.45341874     -0.18091390     -0.34176417
C       0.51539489      0.79249961      0.38802014
C       0.59063471     -0.66582515      0.76221074
O      -0.60385034     -1.33042162      0.40673600
C      -1.44211886     -0.44338022     -0.32862240
C      -0.82786148      0.95760293     -0.22666684
O      -1.37803298      1.98197059     -0.54269079
H       1.21531704     -0.46900605     -1.35670831
H       2.50625537     -0.03760595     -0.14375978
H       0.93104207      1.60534887      0.96302176
H       1.00363120     -1.01904492      1.69558747
H      -1.51961459     -0.74633302     -1.37796885
H      -2.44421575     -0.44489116      0.10260503
