16
b3lypvtz=-181120.61365712
C       3.53667455     -0.62580845      0.06863308
C       2.54221669      0.04181338      0.01846480
C       1.33562004      0.86510392     -0.02598972
N       0.17305379      0.09778037     -0.47103447
C      -0.80826429      0.01478339      0.31929164
C      -2.06320844     -0.72596808     -0.02753519
C      -3.29930812      0.18259835     -0.01107789
H       4.41444576     -1.22079035      0.10796692
H       1.17757873      1.32864136      0.95906714
H       1.49246406      1.67591521     -0.74373606
H      -0.79140421      0.49901124      1.30877427
H      -1.93184450     -1.18878098     -1.00520125
H      -2.19994722     -1.52987861      0.70381147
H      -4.20188612     -0.39115368     -0.22264314
H      -3.21566675      0.96893472     -0.76248283
H      -3.43032397      0.66073021      0.96177621
