14
b3lypvtz=-201255.22428389
C      -2.22912641     -1.13339823      0.00004408
C      -1.49939275     -0.02199708     -0.00006824
C      -0.02106843     -0.02033513     -0.00008273
N       0.68767440      1.24734702      0.00026193
N      -0.03982366      2.25053034     -0.00007877
N       0.64417446     -1.10235901     -0.00004501
C       2.08934168     -1.14514714      0.00008166
H      -3.31001096     -1.08904551     -0.00003807
H      -1.76233928     -2.10954429      0.00021523
H      -1.97017509      0.94977294     -0.00014281
H       0.58447308      3.07019061      0.00005066
H       2.40800717     -1.72016683      0.87313635
H       2.58454450     -0.17507937      0.00043458
H       2.40819130     -1.71960130     -0.87328087
