19
b3lypvtz=-171821.54687927
C       2.02041814     -0.00015070     -0.44849627
C       0.60366611     -0.00051827      0.07506000
C       0.09110813     -1.30009735      0.75685564
C      -1.16358249     -1.30290618     -0.16350248
C      -0.68127153      0.00056609     -0.84268113
C      -1.16158971      1.30474559     -0.16364375
C       0.09150814      1.29832302      0.75882168
H       2.21987985     -0.88298694     -1.06094931
H       2.74034988     -0.00064863      0.37595877
H       2.21980658      0.88349761     -1.05980953
H       0.74612231     -2.15676135      0.59399830
H      -0.09892742     -1.21866046      1.82814263
H      -1.19862015     -2.15861378     -0.83715346
H      -2.12833163     -1.23166826      0.34116308
H      -0.63025311      0.00032804     -1.93083349
H      -1.19291639      2.16079015     -0.83707464
H      -2.12744173      1.23602937      0.33926457
H       0.74788704      2.15459707      0.59956661
H      -0.10083202      1.21436398      1.82949377
