12
b3lypvtz=-223823.34482557
C       2.42169068     -0.46822728      0.01044385
C       0.96906709     -0.14891370     -0.00665902
N       0.00682919     -0.99975744      0.00274677
C      -1.17835465     -0.26532497      0.00921019
N      -2.35391923     -0.71065733      0.00328014
O      -0.86082677      1.11183222      0.01007010
N       0.54953402      1.16893481     -0.11268271
H       0.91089087      1.83913562      0.55820227
H       2.54982122     -1.53963972      0.13320374
H       2.89065966     -0.15202729     -0.92244278
H       2.92742973      0.05039154      0.82779687
H      -3.03810980      0.04085154      0.01599359
