18
b3lypvtz=-205202.10307033
C       2.06985141     -1.17458724     -0.00886986
C       0.90599584     -0.27253849     -0.37015197
C       1.10357742      1.26125550     -0.33373834
N      -0.22759631      1.39540197      0.31120250
C      -0.22132706     -0.04924126      0.67340498
C      -1.57461880     -0.71067408      0.46040034
O      -2.14115266     -0.33920762     -0.78258213
H       2.52227429     -0.88036825      0.94112091
H       1.74913868     -2.21496489      0.08172216
H       2.84879438     -1.13904132     -0.77396790
H       0.46501374     -0.57567423     -1.31999044
H       1.93776502      1.54979081      0.31539318
H       1.19802222      1.78690488     -1.28542612
H      -0.28044431      2.04698801      1.08437235
H       0.13499817     -0.24678392      1.69245473
H      -1.46787056     -1.79844636      0.46405865
H      -2.24471292     -0.44250408      1.29008335
H      -1.92791257      0.60105460     -0.88206842
