10
b3lypvtz=-225452.96514213
C       2.95368751     -0.44294919     -0.00019803
C       1.79621838     -0.12776447     -0.00021460
C       0.42969441      0.31726511     -0.00024544
N       0.02775869      1.51067651      0.00031572
O      -0.41148608     -0.78160705      0.00024261
C      -1.78933183     -0.72419361     -0.00000022
O      -2.48754006      0.23333597     -0.00072179
H       3.97738955     -0.72623782     -0.00017753
H       0.82093954      2.14710010      0.00035267
H      -2.12988611     -1.76753656      0.00058562
