14
b3lypvtz=-203691.04133151
C      -1.62256558     -0.34116134      0.39786997
C      -1.27756390      0.79261300     -0.59118775
O       0.16588291      0.94946016     -0.54779465
C       0.66752395     -0.15142716      0.09212182
C      -0.26185046     -0.94434915      0.63349664
C       2.12076670     -0.30021015      0.11466904
N       2.97002913      0.48489020     -0.41155032
H      -2.05652169      0.03689863      1.32890259
H      -2.34018586     -1.04472716     -0.02678701
H      -1.54971887      0.53097443     -1.61565190
H      -1.72232079      1.75239403     -0.33899698
H      -0.06477979     -1.84450390      1.19204643
H       2.48186536     -1.18172460      0.64488342
H       2.48943890      1.26087301     -0.87202130
