16
b3lypvtz=-181152.81945135
C       1.57826876     -1.58830674      0.13772448
C       0.47346111     -0.75033615     -0.45834949
C       0.47349659      0.75035993     -0.45832866
C       1.57834301      1.58825664      0.13777784
C      -0.49254525      0.00002122      0.45013366
C      -1.89766842      0.00004582      0.17129171
N      -3.02573237      0.00003489     -0.06599638
H       1.20676466     -2.57909469      0.40423953
H       1.99793365     -1.14047277      1.03802616
H       2.39182453     -1.71965641     -0.57860991
H       0.00098635     -1.19663190     -1.32454897
H       0.00104663      1.19670541     -1.32451602
H       1.99795934      1.14038551      1.03808372
H       1.20689562      2.57906488      0.40429626
H       2.39192343      1.71956372     -0.57853654
H      -0.25150362      0.00000364      1.50608661
