18
b3lypvtz=-181878.9014141
C      -1.13384362      0.94796036      0.65302804
C      -2.27787234     -0.02687889      0.26951803
C      -1.26137133     -0.81136414     -0.60072161
C      -0.12017036     -0.12345080      0.18560479
N       1.01496336      0.34347661     -0.58590192
C       2.23211466      0.63340232      0.16563040
C       2.14451434     -0.57461963     -0.69395596
H      -1.07299555      1.28864598      1.68617244
H      -1.09842160      1.81096612     -0.01172041
H      -2.62301843     -0.61026844      1.12318379
H      -3.14582575      0.39501071     -0.23434379
H      -1.30443234     -1.89997239     -0.58650262
H      -1.26317090     -0.46598977     -1.63449637
H       0.19623736     -0.75039082      1.03375658
H       2.79321072      1.49980804     -0.16120584
H       2.21264540      0.47924289      1.24033713
H       2.06672568     -1.53477849     -0.19281375
H       2.64081070     -0.60079964     -1.65586890
