13
b3lypvtz=-211366.60215727
C       2.36575701     -0.54320704      0.00301382
N       1.00236500     -0.06266690      0.00888549
N       0.69701946      1.21937918      0.00309868
C      -0.63590816      1.23929543     -0.00908819
C      -1.09707024     -0.08995219     -0.00451725
N      -2.39666191     -0.57298237     -0.07800294
N      -0.04055435     -0.90060052      0.01027364
H       3.01755265      0.32395058      0.03971508
H       2.55950939     -1.11630643     -0.90376682
H       2.54148443     -1.17943364      0.87001255
H      -1.18268579      2.16591491     -0.02367856
H      -2.46261458     -1.55113496      0.16150342
H      -3.07141293     -0.02343904      0.43082308
