9
b3lypvtz=-256347.93565578043
C       0.52934056     -0.25672242      0.77877680
N      -0.55050112      0.13621378      0.27890870
N      -1.67533230     -0.58424789      0.88056469
N      -2.75043191     -0.23080392      0.42302798
N       1.81202926      0.34637509      0.30973976
O       1.78162832      1.20332225     -0.54484572
O       2.80202987     -0.10965175      0.86340644
H       0.67686960     -1.01114962      1.54333703
H      -2.62563230      0.50666449     -0.29633552
