10
b3lypvtz=-225481.59322247
C      -1.50883750     -0.28512208      0.37690365
C      -0.17814789     -0.45324926     -0.28966063
O       0.10759643     -1.31050851     -1.08597508
C       0.90714012      0.57868549      0.09668329
O       0.71999069      1.47138364      0.88021199
C       2.20744371      0.39523017     -0.56772491
N       3.24278041      0.29472729     -1.06035929
H      -2.18734981     -1.06093984      0.03342031
H      -1.39354596     -0.33302115      1.46147054
H      -1.91707019      0.70281426      0.15503014
