13
b3lypvtz=-216157.32615988
O       2.14428680     -0.50579373     -0.65489801
C       1.67913469      0.37064004      0.01737741
C       0.31010551      0.32784792      0.69514358
C      -0.65770633      1.25021038     -0.01044324
C      -1.64577079      0.53133826     -0.52210516
C      -1.45475655     -0.91746448     -0.19086139
O      -0.28888250     -0.95049133      0.64043364
H       2.22844286      1.32291159      0.19375409
H       0.46725688      0.61987627      1.74495973
H      -0.51905374      2.31780121     -0.08917295
H      -2.47648541      0.90568872     -1.10217849
H      -2.29801160     -1.34310975      0.36324969
H      -1.29705481     -1.53052509     -1.08596289
