13
b3lypvtz=-213789.66352489
N       2.36496484     -0.45808590      0.07136272
C       1.03045493     -0.17819132     -0.01379504
C      -0.03083838     -1.04081605      0.00572102
C      -1.24722429     -0.27043998      0.01401101
O      -2.41069891     -0.62761448     -0.00536188
C      -0.80487934      1.21102668      0.02091053
N       0.65524282      1.14886069     -0.10709492
H       2.98928260      0.18755812     -0.38586560
H       2.62503157     -1.42404386     -0.03553611
H       0.02281758     -2.11601807     -0.02935717
H      -1.26388169      1.74943679     -0.80812806
H      -1.10890363      1.68448432      0.95636649
H       1.19765589      1.80085106      0.44051901
