10
b3lypvtz=-220597.89493128
C      -0.19167423      1.45343542     -0.06595692
C      -1.29009349      0.67212166     -0.06811439
N      -1.34653926     -0.62261981      0.42955171
N      -0.42319538     -1.43290827      0.35458225
N       0.72956975     -1.00303986     -0.43855541
N       1.51129398     -0.05670415      0.35907697
N       1.04843929      1.08113344      0.43482143
H      -0.27072450      2.50974349     -0.28631681
H      -2.26148063      1.09383510     -0.28985086
H       1.31780449     -1.82989704     -0.43823796
