14
b3lypvtz=-231975.21625313
C       2.13473361      1.30701481     -0.00386528
C       1.67418752     -0.11137882     -0.35248679
O       2.28102651     -1.08892082      0.49533465
C       0.21188116     -0.21708198     -0.34664032
C      -0.98740866     -0.28954725     -0.30523414
C      -2.43480072     -0.40655503     -0.27783991
F      -3.01174962      0.55882486      0.54929755
H       1.74048805      2.03036927     -0.71818953
H       1.78778125      1.58853796      0.99146799
H       3.22334247      1.34476107     -0.02124749
H       2.03333007     -0.36261537     -1.35327000
H       1.89195442     -1.00735676      1.37311624
H      -2.73567453     -1.38634366      0.10004797
H      -2.85160054     -0.27433726     -1.27892994
