16
b3lypvtz=-204463.89303117
C       2.31454514     -0.50512265     -0.13369523
C       0.85023910     -0.90867943     -0.29196343
C      -0.16039063      0.20624583      0.06749513
C      -0.00385155      1.46488837     -0.78717153
O      -0.00901460      0.63171731      1.42264939
C      -1.52734433     -0.34100896     -0.11755952
N      -2.58026414     -0.78826562     -0.24298665
H       2.50961921     -0.11484058      0.86472609
H       2.60970192      0.25448096     -0.85738003
H       2.95742759     -1.37176950     -0.28961487
H       0.65101408     -1.23547419     -1.31506394
H       0.63255987     -1.76821143      0.34828302
H      -0.76799009      2.19147038     -0.51839334
H      -0.09832762      1.22721589     -1.84584916
H       0.97326323      1.90658408     -0.60349319
H      -0.17000518     -0.11695145      2.00814626
