14
b3lypvtz=-226972.16192632
O       2.43793145      1.22621225      1.10215273
C       1.22548370      1.09650718      0.49552829
C       0.77359616     -0.04077296     -0.02941067
O       1.62593790     -1.14580775     -0.02270783
C      -0.53554106     -0.22554648     -0.68941602
C      -1.77602073     -0.57119948      0.07142355
N      -1.56394200      0.78680825     -0.44438096
H       2.86866425      0.36117996      1.07270535
H       0.64516948      2.00403812      0.46587432
H       1.12314279     -1.93212338      0.21606988
H      -0.47366358     -0.64440225     -1.69151360
H      -1.72959710     -0.65224457      1.15014954
H      -2.51145359     -1.20368822     -0.41202438
H      -2.10980768      0.94113933     -1.28435021
