15
b3lypvtz=-191209.53926663
C      -0.73271799      1.85263902     -0.03424591
C      -0.71969845      0.51446823      0.00592294
C      -2.01162189     -0.20667932      0.03174402
N      -2.24910275     -1.45413223      0.06993569
C       0.54933359     -0.24617880      0.02452015
N       1.68417144      0.31199107      0.00446446
C       2.86477002     -0.52142556      0.02524650
H      -1.66695323      2.39866875     -0.04756641
H       0.18927305      2.41597293     -0.05421995
H      -2.88097469      0.45465174      0.01469236
H      -1.39398216     -2.01056127      0.08388715
H       0.46706337     -1.34024592      0.05714204
H       2.64571652     -1.59714730      0.05706698
H       3.46889831     -0.30791962     -0.85925236
H       3.47388585     -0.25717971      0.89244034
