18
b3lypvtz=-181893.06304791
C       2.61026092     -0.97508040     -0.29053532
C       2.18229719      0.14088429      0.28914994
C       0.77308096      0.55004631      0.50481832
C      -0.00020524      1.27172702     -0.58696248
C      -0.39671682     -0.11643422     -0.16050564
C      -1.68734748     -0.34115934      0.60257666
N      -2.90510970     -0.43256779     -0.20613472
H       3.66677375     -1.17010357     -0.41702272
H       1.92936409     -1.73344454     -0.65622504
H       2.92133312      0.85332369      0.64718590
H       0.58130520      0.93356946      1.50209741
H      -0.63231398      2.10057923     -0.29281415
H       0.49117340      1.39330308     -1.54239357
H      -0.15783545     -0.90434219     -0.86612948
H      -1.82319667      0.47103155      1.32281528
H      -1.61033410     -1.25959652      1.19040949
H      -2.85032641     -1.22500353     -0.83602404
H      -2.99726278      0.39113747     -0.79053584
