19
b3lypvtz=-192729.07026863
C       1.75926290     -0.57273613     -0.69006693
C       0.76726720      0.53949720     -0.38243945
C      -0.70291177      0.13678718      0.02621398
C      -0.24223027      0.40023592      1.48163200
N       0.91376639      1.16607320      0.95858246
C      -1.20475119     -1.25351379     -0.31677351
N      -1.72233796      1.11202378     -0.35925742
H       1.77803192     -1.33216484      0.09406686
H       1.52296187     -1.06742070     -1.63494749
H       2.76803293     -0.16179229     -0.78016766
H       0.79316450      1.27724832     -1.19160467
H      -0.93281338      0.97876360      2.09808912
H       0.02045747     -0.52168642      2.01115931
H       1.79895629      0.99162576      1.41846216
H      -1.38886474     -1.34940187     -1.39058186
H      -0.49561866     -2.02860892     -0.02930848
H      -2.14849760     -1.43890469      0.19778066
H      -1.88442783      1.07311828     -1.36047566
H      -1.39944810      2.05085640     -0.15036343
