15
b3lypvtz=-216940.70738693
C       1.61810908     -1.09691606      0.86726503
C       1.00428570      0.01749024      0.05836916
O       1.64551390      0.72344202     -0.68172372
C      -0.52043568      0.21355115      0.21654521
C      -0.96075248      1.62251249     -0.16965002
C      -1.19875557     -0.84009345     -0.65201524
O      -1.42818430     -1.96808638     -0.30296413
H       1.01250762     -2.00219990      0.80325212
H       2.63421522     -1.28667940      0.53070053
H       1.63720006     -0.80250483      1.92032552
H      -0.78045586     -0.03060662      1.24873817
H      -0.48765409      2.36333752      0.47377692
H      -0.67044619      1.84843149     -1.19478165
H      -2.04232270      1.73096469     -0.07830698
H      -1.46292473     -0.49274294     -1.67173093
