11
b3lypvtz=-213038.12256152
C       1.12234973      0.69552907     -0.03073424
C      -0.14660394      1.16923608      0.07829158
N      -1.17516478      0.29636950      0.09257372
C      -1.02723781     -1.11307539      0.00008127
O      -2.01540080     -1.81209558      0.02215366
N       0.27581905     -1.57184089     -0.11033096
C       1.25746587     -0.71558773     -0.12261046
H       1.97601018      1.35319029     -0.04647181
H      -0.39441106      2.21914564      0.15605778
H      -2.12840352      0.61807919      0.17243369
H       2.25557710     -1.13895015     -0.21144425
