17
b3lypvtz=-215306.63731284
C       1.49420565      1.21598250      0.75435792
C       1.14834063      0.10842499     -0.24806511
C       2.26576207     -0.92584249     -0.36459287
N      -0.09559322     -0.57596035      0.08318106
C      -1.33653971     -0.03689578     -0.11082879
N      -1.70635961      0.98860977     -0.76920298
O      -2.27518710     -0.79923214      0.51460702
H       0.67577281      1.93023432      0.84411522
H       2.38836089      1.75820325      0.44104866
H       1.68400917      0.79114364      1.74258473
H       1.00456438      0.56064079     -1.23299225
H       2.02310748     -1.67941359     -1.11364680
H       3.20401765     -0.44680568     -0.64449127
H       2.42641115     -1.43171591      0.59130438
H      -0.05097000     -1.30441968      0.77772773
H      -0.93382709      1.48820688     -1.19219900
H      -3.12027416     -0.37747452      0.31153633
