18
b3lypvtz=-205203.932524
C      -3.15151286     -0.36782973      0.05837859
N      -1.85335548     -0.02157485     -0.48569273
C      -0.84189599     -0.13400541      0.25638290
C       0.53952530      0.24015701     -0.21583258
C       0.85716202      1.69965479      0.12009498
O       1.43309857     -0.66572610      0.42933419
C       2.69301160     -0.79680298     -0.19522541
H      -3.11311315     -0.72039893      1.09764436
H      -3.60442768     -1.14267889     -0.56323017
H      -3.80694062      0.50390639      0.00436173
H      -0.89599216     -0.49329843      1.29421817
H       0.57933850      0.09553530     -1.30118948
H       0.79668017      1.86300914      1.19738809
H       0.14467163      2.35913743     -0.37578791
H       1.85943569      1.97102807     -0.21294688
H       3.27142992      0.13328244     -0.17208194
H       2.59012042     -1.11719822     -1.23929303
H       3.24277513     -1.55901801      0.35443910
