18
b3lypvtz=-202821.12987381
C       2.61805065     -0.67158825     -0.43558998
C       1.63194758      0.50000904     -0.42658844
N       0.77067114      0.60556810      0.75463310
C      -0.26262347     -0.41741533      0.88074615
C      -1.47988651     -0.13328508      0.00225663
N      -2.18541377     -1.02038987     -0.58633329
N      -1.81967415      1.19063843     -0.04439135
H       3.30122292     -0.61267269      0.41492112
H       3.21984247     -0.65790054     -1.34648496
H       2.10921544     -1.63534588     -0.39352609
H       2.18588773      1.43767720     -0.51379424
H       0.98267969      0.44451729     -1.30347781
H       1.32972113      0.65116299      1.59601508
H      -0.60328607     -0.41964385      1.91893561
H       0.08293368     -1.43286395      0.65232695
H      -1.80615079     -1.94787535     -0.41559886
H      -2.51048320      1.45492860     -0.72615290
H      -1.08317446      1.84430013      0.16646030
