15
b3lypvtz=-191237.08666898
C       2.10722619     -0.19408914     -0.03873672
C       0.61979617     -0.23822439      0.00495893
C      -0.19487001     -1.27281922      0.22627793
C      -1.63354283     -0.84668284      0.18143526
N      -1.52258874      0.55395416     -0.19132372
C      -0.20267900      0.98156982     -0.19851883
N       0.28684962      2.15135610     -0.35256076
H       2.48877262      0.50681537      0.70585529
H       2.45047212      0.17398844     -1.00737626
H       2.54102784     -1.17703442      0.14179728
H       0.10170134     -2.29595204      0.40586392
H      -2.12536802     -0.98024019      1.15356939
H      -2.21029149     -1.42011624     -0.55332238
H      -2.26704940      1.20202888     -0.00184008
H      -0.43955640      2.85524569     -0.47597926
