15
b3lypvtz=-240216.16964096
O       2.70454602      0.83452260     -0.98502762
C       2.49510378     -0.37770284     -0.40271260
C       1.34929733     -0.76625878      0.14953072
O       0.28509720      0.10991975      0.20403660
C      -0.99684233     -0.47233517     -0.05565427
C      -2.04227304      0.56076536      0.30427781
O      -2.01787476      0.88771985      1.68313617
H       1.87992862      1.33456210     -0.92344372
H       3.36857249     -1.01177588     -0.40779283
H       1.22139875     -1.73736661      0.60989674
H      -1.12239158     -1.36599932      0.56470250
H      -1.07434041     -0.75903522     -1.11025298
H      -3.03393492      0.15878673      0.09213883
H      -1.90059728      1.45333187     -0.31811890
H      -1.11588986      1.15086556      1.89738352
