16
b3lypvtz=-202055.03141856
C      -2.38301477     -0.57703729     -0.52367660
N      -1.39865392     -0.42290811      0.24646392
C      -0.28921975      0.40442155     -0.19541417
C      -0.27678026      1.70544486      0.62287369
C       1.02445785     -0.36090347     -0.00725263
N       1.20554413     -1.35610750      0.76119540
N       2.08551642      0.18978201     -0.70390484
H      -2.44442328     -0.13045169     -1.52437200
H      -3.22654467     -1.18194244     -0.19901321
H      -0.39105264      0.65957368     -1.26257699
H      -1.18485461      2.27920803      0.43560127
H      -0.22637159      1.47319022      1.68618472
H       0.58715066      2.31304348      0.35770125
H       0.33648868     -1.58391556      1.23771885
H       2.91783987     -0.37981320     -0.69597961
H       1.88441289      0.62244245     -1.59041505
