12
b3lypvtz=-247124.23647432
C       2.68006906      0.09443962     -0.00001022
O       1.45845089     -0.66144427      0.00015844
C       0.32464219      0.08607737      0.00022397
O       0.28339060      1.28295264      0.00005925
N      -0.74407131     -0.80809182      0.00003028
N      -2.08964355     -0.58572108     -0.00012780
N      -2.45047971      0.59994637      0.00013407
H       3.47716258     -0.64299960     -0.00010209
H       2.74073726      0.72269546     -0.88710223
H       2.74098585      0.72273236      0.88703789
H      -0.52131093     -1.78846271     -0.00003121
H      -3.47400394      0.55661966     -0.00018635
