14
b3lypvtz=-229597.16165965
C       0.36022769      2.00128639     -0.16190997
C      -0.06896405      0.72999393     -0.13005012
N      -1.39237866      0.34487279     -0.28213049
C      -1.96903752     -0.70819966      0.54847977
C       0.93813583     -0.36554843     -0.02232579
N       1.96812422     -0.44523625      0.68176183
F       0.65336999     -1.40388857     -0.83656644
H      -0.33629903      2.82735284     -0.21439143
H       1.41300516      2.23142246     -0.20584795
H      -2.00700940      1.13602269     -0.40068043
H      -2.01514626     -0.44405204      1.61167898
H      -1.39223567     -1.62458736      0.44334056
H      -2.97938670     -0.91288336      0.19827573
H       2.05470141      0.37721158      1.27218075
