17
b3lypvtz=-191968.1576207
C       3.41742509      0.39708831      0.22497819
C       2.27843058      0.08606139     -0.38933663
N       1.11741616     -0.21722751      0.32750531
C       0.06837340     -0.51440999     -0.32513565
C      -1.21890556     -0.89182306      0.34845312
N      -2.35750054     -0.23992807     -0.29025273
C      -2.51981471      1.16247089      0.07818290
H       3.47053608      0.41979665      1.30492545
H       4.30891948      0.63119111     -0.33918477
H       2.22260764      0.06019318     -1.47978609
H       0.04215759     -0.52098367     -1.42373286
H      -1.34786693     -1.97362452      0.23220850
H      -1.12415061     -0.68427985      1.42328010
H      -3.20413080     -0.75193747     -0.08445000
H      -3.40524983      1.56666250     -0.41253980
H      -1.65948349      1.73717723     -0.26850151
H      -2.61357054      1.32916689      1.16174647
