13
b3lypvtz=-216095.58728487
O       1.52360181     -1.44865441     -0.03962745
C       0.51349504     -0.52542823      0.16037786
C       0.67269890      0.60957125      1.10157909
C       0.32048909      0.89721927     -0.34922179
C      -1.16763569      0.54625666     -0.64613815
O      -1.82545565      0.11249180      0.55957180
C      -0.99670576     -0.81330753     -0.15839224
H       1.55373277     -1.68846944     -0.97249153
H      -0.03705192      0.79567966      1.89403528
H       1.70775020      0.82222094      1.33567121
H       0.94672357      1.50069582     -0.98842800
H      -1.78609857      0.95070754     -1.43417163
H      -1.42564379     -1.75888332     -0.46276446
