15
b3lypvtz=-214477.98026695
C      -1.37541673      0.65953228     -1.06281737
C      -1.31162366     -0.50021667     -0.10280550
C      -0.82593713     -0.31680064      1.29583927
N      -0.02679610     -1.06320639      0.33877300
C       1.19120902     -0.57583827     -0.11067450
N       1.96266771      0.10257763      0.64103204
O       3.19210421      0.35486635     -0.01468881
H      -0.59585247      1.39301317     -0.85641598
H      -2.34256536      1.15901166     -0.97977621
H      -1.26462519      0.32383593     -2.09576196
H      -2.05805757     -1.26954408     -0.26983722
H      -0.46289723      0.66536966      1.57468106
H      -1.24941743     -0.90008565      2.10379656
H       1.48430245     -0.87422804     -1.11479278
H       3.68290546      0.84171303      0.65344839
