16
b3lypvtz=-227762.12369462
C      -1.11109964      1.27754978     -0.49781441
N      -0.63972744     -0.09877220     -0.56283461
C      -1.68549643     -1.06571081     -0.26721599
C       0.54583892     -0.32300878      0.20139568
O       1.64715590      0.31462599     -0.49916000
C       2.86343364      0.11929969      0.01872708
O       3.12326192     -0.54025953      0.98812142
H      -1.93164308      1.41489995     -1.20187935
H      -0.30688685      1.95476150     -0.77902712
H      -1.46846521      1.55660193      0.50757876
H      -2.08105812     -0.98460753      0.75877815
H      -2.51702607     -0.91558028     -0.95594491
H      -1.30786358     -2.07857695     -0.40917755
H       0.74752604     -1.39015482      0.27737303
H       0.51859361      0.10195409      1.21580095
H       3.60345639      0.65697793     -0.58893328
