22
b3lypvtz=-183426.60570268
C      -1.58096386     -1.19078515     -0.04608340
N      -0.82426233     -0.00006373     -0.40717614
C      -1.58088400      1.19085690     -0.04658533
C       0.61011493     -0.00004914     -0.00126063
C       1.29661028     -1.23924998     -0.60082168
C       1.29660505      1.23921131     -0.60069941
C       0.80990540     -0.00007499      1.52941428
H      -1.10586410     -2.09142659     -0.42679406
H      -1.73300450     -1.31513072      1.03918402
H      -2.56915217     -1.12750102     -0.50418681
H      -1.73273779      1.31579094      1.03864204
H      -1.10585079      2.09128924     -0.42787177
H      -2.56915251      1.12732355     -0.50447923
H       2.37592368     -1.16572693     -0.46425994
H       0.97517166     -2.16528288     -0.12539319
H       1.08833265     -1.30901053     -1.66934953
H       0.97519789      2.16518662     -0.12513212
H       1.08833355      1.30913496     -1.66921652
H       2.37591223      1.16560892     -0.46414170
H       0.36738233      0.88311964      1.99213920
H       0.36742106     -0.88329033      1.99213107
H       1.87352630     -0.00004908      1.77414384
