17
b3lypvtz=-191972.4542408204
C      -1.66624443     -0.36619006      0.61403249
C      -1.11099355      0.12710001     -0.69171829
C      -0.41527856     -0.98691274      0.05821415
C       0.91432733     -0.43274858      0.55137972
N       0.80641096      1.03942291      0.42270993
C      -0.19050745      1.33671008     -0.62378427
N       1.99610692     -1.02913995     -0.22055270
H      -1.58732268      0.27119251      1.48708356
H      -2.56790400     -0.96131148      0.58012749
H      -1.65858753     -0.06749086     -1.60363750
H      -0.44019627     -2.01126994     -0.28424073
H       1.10220053     -0.66397576      1.60261075
H       0.52165721      1.44478834      1.30367668
H       0.30577156      1.47440640     -1.58934229
H      -0.70673604      2.27024685     -0.39202933
H       2.86386117     -0.55253438     -0.00184398
H       1.83343484     -0.89229339     -1.21268569
