10
b3lypvtz=-225475.12894618
C       2.03765164     -1.61536985     -0.00028495
C       1.39204960     -0.60472609     -0.00015260
C       0.69749764      0.66910767      0.00005703
O       1.28906772      1.72490127      0.00003303
N      -0.69048624      0.61731524      0.00025710
C      -1.50992320     -0.50076440      0.00003112
O      -2.71138294     -0.42605545      0.00008377
H       2.61306829     -2.50897443     -0.00038631
H      -1.15298972      1.51851974      0.00034884
H      -0.95259178     -1.44681170     -0.00018901
