16
b3lypvtz=-204456.51515756
C       1.82768548     -0.11638700      0.31054651
C       0.53897714      0.07372888     -0.50079952
C      -0.08139534     -1.24963978     -0.89010944
N      -1.17888217     -1.55548710     -0.33614104
C      -1.57778218     -0.45557976      0.55236916
C      -0.62486256      0.72542027      0.28718750
O      -1.34575003      1.68311644     -0.48911889
H       2.25824738      0.84612164      0.59216535
H       1.63736696     -0.68192914      1.22471575
H       2.57800058     -0.66168594     -0.26439703
H       0.76128889      0.67241696     -1.38928472
H       0.39685827     -1.93423446     -1.58761978
H      -2.60801213     -0.16286198      0.34755739
H      -1.53576950     -0.80807161      1.58574682
H      -0.27254881      1.18672905      1.21496849
H      -0.77362197      2.43824355     -0.65758654
