19
b3lypvtz=-218445.78452397
C      -2.22246916     -0.98809538      0.15144280
O      -0.91069886     -0.56701327      0.46227912
C      -0.29948282      0.30429795     -0.49454596
C      -0.82872416      1.72960742     -0.38044706
C       1.21129426      0.21823395     -0.22309959
C       1.79623648     -1.14547456     -0.57705445
O       1.49077759      0.56566502      1.13159956
H      -2.93478342     -0.15674391      0.13603961
H      -2.52552962     -1.68917779      0.92753127
H      -2.25782453     -1.49710499     -0.81939944
H      -0.49429285     -0.08467278     -1.50324628
H      -0.38083630      2.36180968     -1.14941085
H      -1.91022781      1.76826014     -0.51230162
H      -0.57774113      2.14353002      0.59544182
H       1.70374973      0.98718666     -0.82307282
H       2.85877294     -1.16482823     -0.33607918
H       1.29761622     -1.93517725     -0.01384701
H       1.68009444     -1.35824178     -1.64237889
H       0.91158701      0.02329811      1.68071798
