16
b3lypvtz=-181165.13785766
C       2.50456232     -0.52402210      0.00000042
C       1.05780046     -0.16479705      0.00000012
C       0.01238640     -1.00227464     -0.00000226
C      -1.26107538     -0.28411389     -0.00000149
N      -2.40023007     -0.85342496      0.00000231
C      -0.92932375      1.20939947     -0.00000613
C       0.61147188      1.28030637      0.00000406
H       3.00864641     -0.10506575      0.87615567
H       3.00864544     -0.10507020     -0.87615757
H       2.65603116     -1.60259374      0.00000297
H       0.06152901     -2.08194541     -0.00000301
H      -3.15271926     -0.16368040      0.00000292
H      -1.36542394      1.68928675      0.87730612
H      -1.36540934      1.68927495     -0.87733225
H       1.00630141      1.80728008     -0.87381266
H       1.00628924      1.80726953      0.87383276
