14
b3lypvtz=-180325.61064086
C      -3.39950338     -0.77226461      0.00040269
C      -2.41356165     -0.09036556     -0.00224479
C      -1.21329317      0.73765629      0.02094337
N       0.00000477     -0.06364453     -0.14247159
C       1.21329482      0.73765767      0.02099527
C       2.41356541     -0.09036220     -0.00214596
C       3.39950699     -0.77226136      0.00052993
H      -4.27241933     -1.37587638     -0.00597917
H      -1.21261040      1.32994073      0.95204343
H      -1.25942976      1.46034637     -0.80031443
H      -0.00000897     -0.82877808      0.52114120
H       1.21257272      1.32993980      0.95209682
H       1.25946400      1.46035000     -0.80025868
H       4.27242397     -1.37587212     -0.00580408
