16
b3lypvtz=-204449.06722251
C       1.71308221     -0.83110220      0.11480569
C       0.48348777     -0.02368610      0.44741706
C      -0.86815380     -0.37066244     -0.06339985
N      -1.01012850     -1.48400246     -0.96089100
C      -0.15581433      0.86785063     -0.61915813
C      -0.65400584      2.19666889     -0.23201154
O      -1.13744510      2.46149484      0.84728891
H       2.60570261     -0.20350214      0.13482223
H       1.63153345     -1.28895899     -0.86927320
H       1.85586451     -1.63004053      0.84659290
H       0.47745063      0.44066747      1.42641583
H      -1.69242299     -0.11816445      0.59934690
H      -1.05336246     -2.35734992     -0.44871781
H      -1.86137731     -1.40711749     -1.50377825
H       0.23262794      0.76683950     -1.62375531
H      -0.56693880      2.98116539     -1.01120446
