17
b3lypvtz=-191944.21235491
C      -0.78311752     -1.05338883     -0.14104763
C       0.23826801      0.02482030     -0.64558645
C      -0.88800280      1.06263668     -0.56668395
C      -1.85061059      0.03855687     -0.08186452
N      -1.97101611      0.58349536     -1.45592530
C       1.39867397      0.28402349      0.30016251
N       2.26919567     -0.89165200      0.38887241
H      -0.49478588     -1.44430694      0.83299735
H      -1.00211798     -1.87917114     -0.81691871
H       0.60607235     -0.13524396     -1.66236361
H      -0.80002662      2.11215490     -0.31875275
H      -2.66976165      0.13392566      0.61686725
H      -2.70840059      1.28499399     -1.44132629
H       1.00894575      0.48650052      1.30233290
H       1.92038341      1.19727328     -0.02505757
H       2.71012717     -1.07077346     -0.50637467
H       3.01617341     -0.73384472      1.05437966
