19
b3lypvtz=-192739.06149958
C      -1.87160640      0.63814882      0.77689992
C      -1.04741834     -0.10083860      0.01137595
N      -1.33210233     -1.43916818     -0.31945004
N       0.15484521      0.35226239     -0.53371560
C       0.45277654      1.76577449     -0.39993194
C       1.32695463     -0.53269913     -0.49360930
C       1.97991693     -0.66883121      0.88434719
H      -2.85338093      0.26699284      1.03223595
H      -1.58920251      1.60190597      1.16537099
H      -1.25974399     -1.62637708     -1.31116971
H      -2.22841481     -1.73601962      0.03473239
H       1.30497219      2.00675223     -1.03597747
H       0.69618444      2.07352476      0.62568342
H      -0.40407688      2.35163675     -0.73022350
H       2.04864862     -0.13955041     -1.21301619
H       1.02982801     -1.51780801     -0.84380330
H       1.27199739     -1.07719238      1.60652542
H       2.33785977      0.29007459      1.26179993
H       2.83586446     -1.34452823      0.82942690
