16
b3lypvtz=-204471.62753097
C      -2.41645715     -0.55117604     -0.16916894
C      -1.05475810      0.02689909     -0.00918143
N      -0.70999166      1.22366469     -0.24449249
C       0.72025103      1.32256109      0.06925792
C       1.15194159     -0.11083698      0.47199231
C       2.14811303     -0.76896324     -0.46299208
O      -0.10633351     -0.84683907      0.43963010
H      -3.10037361      0.21491569     -0.52239624
H      -2.77032669     -0.94862605      0.78354578
H      -2.39354737     -1.37976843     -0.87890825
H       1.27065119      1.68526696     -0.80216114
H       0.87182642      2.04601041      0.87286021
H       1.51088664     -0.15671187      1.50089978
H       2.30894281     -1.81249492     -0.19175407
H       1.79112880     -0.72877437     -1.49353315
H       3.10760558     -0.25005396     -0.41256930
