14
b3lypvtz=-203673.24389527
C      -1.86417416     -0.31907842      0.14821451
C      -0.46204122      0.22899305      0.38486583
C       0.70768125     -0.73107492      0.15314031
C       1.98938739     -0.02996200      0.17596090
N       1.18775553      0.04488265     -1.08673167
C       0.11708964      0.98936672     -0.82036367
O      -0.21479548      1.93774699     -1.45900145
H      -2.58270470      0.49779430      0.08681677
H      -1.91693595     -0.88476723     -0.78337676
H      -2.16515805     -0.97685462      0.96491195
H      -0.41817743      0.77641904      1.32877562
H       0.62087242     -1.80679055      0.09857743
H       2.10219716      0.87186104      0.76759962
H       2.89910359     -0.59863604      0.04061061
