11
b3lypvtz=-212993.72940379
N       0.92686601     -0.05121589      0.05965578
C       0.37096102      1.06963639     -0.13832877
C      -1.09700154      1.33809793     -0.18713290
N      -1.34180731      2.57444745     -0.40623271
C      -0.07524149      3.26160228     -0.52644245
C       0.95459476      2.41825576     -0.37592698
O       2.29859338      2.56522179     -0.40005545
H       1.94583899      0.04649179      0.04302259
H      -1.86584970      0.58924039     -0.05528877
H      -0.07298907      4.32354104     -0.71447673
H       2.53023495      3.48608107     -0.56219359
