17
b3lypvtz=-191934.38434546
N      -2.34323886     -0.24708433      0.29194022
C      -0.96152528     -0.69422505      0.25343726
C       0.11831005      0.21702957      0.90542179
C      -0.10116862      1.21830993     -0.26421335
C      -0.06545929     -0.19325791     -0.91595699
C       1.14752609     -0.53468874      0.00491742
N       2.46854704      0.01982530     -0.25214746
H      -2.90148239     -0.77388476     -0.36990909
H      -2.74260515     -0.41829384      1.20757234
H      -0.83209906     -1.75945599      0.48046667
H       0.22514341      0.44218287      1.96733992
H       0.72644673      1.88379300     -0.49791176
H      -1.05716249      1.73027910     -0.28291237
H      -0.17224401     -0.44492369     -1.97190339
H       1.23315066     -1.59959581      0.23607406
H       2.70621212      0.75917882      0.39449743
H       2.55154903      0.39481152     -1.18691269
