15
b3lypvtz=-191205.99311647
N      -2.47530572     -1.17435041      0.13501723
C      -1.92308481     -0.17873092     -0.03080327
C      -1.21947691      1.08724369     -0.21763525
C       0.21686719      1.07817478      0.32808750
N       1.07772949      0.22963836     -0.47791033
C       1.24635845     -1.15492736     -0.03752905
C       2.34203468     -0.16800859      0.13194077
H      -1.79605154      1.87106476      0.27841366
H      -1.19442118      1.31866500     -1.28393697
H       0.59944171      2.09905753      0.26839798
H       0.20755951      0.78936628      1.38949458
H       0.71481867     -1.47185810      0.85297287
H       1.28893714     -1.89256358     -0.82769973
H       2.54778614      0.17572278      1.14103506
H       3.19851019     -0.17625223     -0.52984805
