15
b3lypvtz=-191204.95421806
C       0.96243431      0.22643347     -0.72722756
C       0.77247845     -1.19615450     -0.16213866
N      -0.41820879     -1.19287065      0.72408236
C      -1.61378326     -0.66737851      0.08141229
C      -0.78670621      0.22308084      0.94796692
C       0.17921506      1.10601974      0.24338453
N       0.30648192      2.33761092      0.50997958
H       0.55350732      0.33528324     -1.73417417
H       2.00900830      0.52409780     -0.77199500
H       1.62578819     -1.47755989      0.45536590
H       0.65222012     -1.95824513     -0.93232206
H      -1.60912213     -0.49338558     -0.98923976
H      -2.54833332     -1.04659819      0.47429017
H      -1.13436016      0.51891186      1.92770566
H       1.04938019      2.76075458     -0.04709019
