17
b3lypvtz=-217690.277707
O       3.46112862      1.40118508     -0.61930180
C       2.78790538      0.63321975      0.01827269
C       1.58757353     -0.10835439     -0.50822379
C       0.33231046      0.15071670      0.33730482
C      -0.87684842     -0.66001750     -0.13043150
C      -2.14814891     -0.36278169      0.65979580
O      -2.56271898      0.99798237      0.57103303
H       3.02975196      0.42807324      1.08459300
H       1.82769029     -1.17866699     -0.47938035
H       1.43467659      0.17412055     -1.55063742
H       0.54100234     -0.08885826      1.38504899
H       0.08297898      1.21285383      0.30814523
H      -1.06298259     -0.46528547     -1.19282554
H      -0.66273530     -1.73115754     -0.05028457
H      -2.95183714     -1.03523461      0.33855774
H      -1.97955727     -0.54327059      1.72328347
H      -2.84018955      1.17547550     -0.33304979
