14
b3lypvtz=-203695.58129981
N      -4.14392983      0.95563002     -0.66293288
C      -3.12325396      0.41826234     -0.66775680
C      -1.87438305     -0.26567891     -0.69143949
C      -0.79874185      0.15919755     -0.02312172
C       0.52890452     -0.52285562     -0.03451871
C       1.63819914      0.36156276     -0.62668997
O       2.89942390     -0.28774099     -0.63131974
H      -1.83997541     -1.17057367     -1.28720102
H      -0.87844483      1.07109337      0.56029153
H       0.80742729     -0.77443306      0.99576402
H       0.48231822     -1.45738651     -0.59526369
H       1.41399419      0.58231252     -1.67023177
H       1.68349008      1.31714642     -0.09119810
H       3.20477159     -0.38673622      0.27571833
