9
b3lypvtz=-261431.37169971
C      -1.66365349      0.42219706      0.21288988
N      -0.78835464      0.32651410     -0.67121085
C       0.18457796     -0.66580577     -0.55811590
O       0.00132354     -1.84545029     -0.44751117
N       1.51114140     -0.14110814     -0.78813355
N       2.09872732      0.21770027      0.23590692
F      -2.63241567      1.31884126      0.09620840
H      -1.75333885     -0.15478134      1.13047778
H       3.04199241      0.52189283     -0.04936432
