11
b3lypvtz=-238922.40668949
F      -2.35853014      0.14155010     -0.63447608
C      -1.62591031     -0.22197147      0.49797157
C      -0.16719848     -0.08520057      0.23889729
N       0.59842450     -1.13009283     -0.03158644
N       1.80748910     -0.56228000     -0.21418954
H       2.60582075     -1.13372435     -0.43427466
C       1.72592214      0.77344889     -0.04846551
N       0.49063760      1.11083214      0.24343462
H      -1.86662938     -1.25704437      0.73721144
H      -1.93107905      0.43710640      1.31075365
H       2.57007227      1.43677005     -0.14286532
