15
b3lypvtz=-191207.6839282
C       2.09170175      0.61663818      0.27622380
N       1.15008191      0.00911756     -0.65815238
C      -0.16869260     -0.22630089     -0.14177258
C      -0.97547750      0.97424998     -0.05690882
N      -1.61718302      1.92587991      0.03607944
C      -0.44953786     -1.29742543      0.91334502
C      -0.88720202     -1.50100794     -0.50722741
H       3.05442203      0.73625814     -0.21932499
H       1.73761687      1.61017360      0.55395312
H       2.24043189      0.03937813      1.19917982
H       1.52266948     -0.82975676     -1.07835468
H       0.41389444     -1.84600078      1.26335795
H      -1.20339830     -1.10029248      1.66194342
H      -1.93987345     -1.43565053     -0.73944814
H      -0.33552662     -2.20015569     -1.12174056
