20
b3lypvtz=-182678.52039006
C       2.75804549      0.34019177      0.16322041
C       1.62798983     -0.58419451     -0.28940220
C       0.26742815     -0.22794586      0.29739880
C      -0.31128204      1.14163369     -0.13998339
C      -1.84767734      0.94871428     -0.10745364
C      -2.03857424     -0.55948358      0.20915687
N      -0.75681773     -1.22455658     -0.05255862
H       3.71345953      0.02661461     -0.25972455
H       2.86001891      0.33233043      1.25068168
H       2.58416590      1.37233996     -0.14578510
H       1.86132170     -1.61489248     -0.01170863
H       1.55502869     -0.56416923     -1.38318736
H       0.35026680     -0.23500854      1.39148905
H       0.01955238      1.95771937      0.50273130
H       0.02649679      1.37370848     -1.15329787
H      -2.29264581      1.20629726     -1.06916747
H      -2.32636024      1.57852374      0.64313293
H      -2.28636607     -0.69130373      1.26572641
H      -2.83575246     -1.02488560     -0.36967622
H      -0.68351622     -1.42704748     -1.04548140
