11
b3lypvtz=-236337.69549911
N      -2.85494941     -0.33062706     -0.81527948
C      -2.00482748     -0.02340982     -0.10503178
C      -0.93578044      0.36924440      0.81852482
O       0.21660614     -0.45344552      0.64923355
C       1.23371111      0.09780189     -0.09574477
N       2.24158730     -0.79827164     -0.21102514
O       1.21957229      1.21882262     -0.53886025
H      -0.67787078      1.41491036      0.65150059
H      -1.27832399      0.23201963      1.84315005
H       2.10130914     -1.75392470      0.06253268
H       2.99919112     -0.56752217     -0.82709828
