17
b3lypvtz=-215286.22360134
N      -2.50198722     -0.78032796     -0.14559540
C      -1.05291221     -0.85255198      0.06991369
C      -0.51068630      0.51943035      0.47939741
N      -0.77397634      1.47041548     -0.60104506
C       0.99587593      0.46542304      0.79126234
C       1.85031262     -0.00768011     -0.35990679
O       2.69753444     -0.86174546     -0.26221458
H      -2.83306601     -1.59034294     -0.65351574
H      -2.99643659     -0.76529473      0.73891309
H      -0.59152433     -1.14505972     -0.87583771
H      -0.75307018     -1.59310778      0.82203598
H      -1.01781622      0.79806779      1.41732093
H      -1.73349940      1.34646173     -0.90685497
H      -0.67589038      2.42533374     -0.27760683
H       1.32934424      1.47971448      1.04223342
H       1.19672583     -0.16962615      1.65515175
H       1.65615912      0.49323522     -1.32590051
