13
b3lypvtz=-237110.29319549
C       1.51688482      1.27465123      0.00002935
C       1.27443088     -0.20805897      0.00002434
N       2.15522355     -1.12512018     -0.00009253
N      -0.05199984     -0.66433933      0.00014457
C      -1.21633087      0.05327280      0.00019407
O      -1.34394093      1.25411492     -0.00019674
O      -2.26901305     -0.80858280     -0.00003462
H       1.06481071      1.74624516      0.87153706
H       1.06462174      1.74629146     -0.87135176
H       2.58915816      1.45914623     -0.00007326
H       3.08941214     -0.72757006     -0.00020619
H      -0.13367024     -1.67038811      0.00018327
H      -3.06353807     -0.25902734     -0.00027158
