14
b3lypvtz=-203692.77198382
C       2.24929296      0.36110654     -0.58885346
C       1.46305326     -0.57008729     -0.05131713
C       0.01176180     -0.45816321      0.11790096
C      -0.69739120     -1.43514118      0.70591858
N      -0.57253689      0.75178295     -0.30267868
C      -1.56113948      0.73208506     -1.08385265
O      -2.20621973      1.84638510     -1.46545989
H       1.84770831      1.30109679     -0.94144517
H       3.31590170      0.20725455     -0.67865242
H       1.89481244     -1.49944099      0.30300944
H      -1.75831960     -1.33686662      0.88666788
H      -0.21055115     -2.33485738      1.05438854
H      -1.99603601     -0.15814095     -1.53796819
H      -1.78033639      2.59298663     -1.01755781
