14
b3lypvtz=-180378.64180535
C       2.21726282     -0.83168808      0.22807779
C       1.04697377     -0.80868244     -0.39444744
C      -0.09739497      0.09876873     -0.07697384
C      -1.36325508     -0.57891604      0.06810377
N      -2.37184177     -1.12501530      0.17723142
C       0.09059349      1.36755163      0.73228768
C      -0.15918208      1.47940221     -0.73545264
H       2.99940271     -1.50795017     -0.08874458
H       2.44072195     -0.18966222      1.07006270
H       0.86497021     -1.49109226     -1.21823760
H       1.08589857      1.56882984      1.09867326
H      -0.70495522      1.63822469      1.41053426
H      -1.12536141      1.82426728     -1.07360020
H       0.67354900      1.72521912     -1.37845859
