13
b3lypvtz=-239445.80240191
C      -2.44589395     -0.55138502     -0.42185183
C      -1.14444182     -0.80469999     -0.32068290
O      -0.25144629      0.24289505     -0.27615742
C       1.08647820     -0.05588471     -0.17144033
C       1.99639048      0.91178964     -0.12494654
O       3.34912768      0.73600557     -0.02163458
O      -3.00103180      0.69148938     -0.48808394
H      -3.17149770     -1.34852008     -0.45916799
H      -0.74719156     -1.80779704     -0.27094229
H       1.33980051     -1.10987875     -0.13050978
H       1.72261596      1.95608411     -0.16719126
H       3.55781458     -0.20399231      0.01341680
H      -2.29072427      1.34389417     -0.44877127
