13
b3lypvtz=-190416.84722343
C      -3.26539108     -0.01885013      0.08543078
C      -1.82681092     -0.18867175      0.19567073
C      -0.63086433     -0.32061387      0.27873083
C       0.75988661     -0.51271788      0.40596933
C       1.69658119      0.23690193     -0.19990162
N       3.04200761     -0.07420496      0.02202304
N       3.83114861      0.68162832     -0.58616953
H      -3.79467792     -0.67077813      0.78251196
H      -3.60847390     -0.25591476     -0.92418233
H      -3.55433677      1.01223988      0.29964506
H       1.10410499     -1.32444614      1.03882939
H       1.46658470      1.07281873     -0.85358641
H       4.78024119      0.36260875     -0.35124907
