19
b3lypvtz=-218461.64318812
C      -1.88152019     -1.24070532      0.07455525
C      -1.03367173     -0.30102596     -0.77870927
C      -0.00000261      0.52087689     -0.00000093
O      -0.62510426      1.34166299      0.97926377
O       0.62509395      1.34166438     -0.97926765
C       1.03367151     -0.30101763      0.77870955
C       1.88152501     -1.24069509     -0.07455204
H      -2.65330129     -1.71408964     -0.53349973
H      -2.37281864     -0.70094648      0.88428773
H      -1.28380590     -2.03708516      0.52032766
H      -1.67540882      0.41738869     -1.29720078
H      -0.51465182     -0.85547207     -1.56157574
H      -1.26215286      1.90264695      0.52147787
H       1.26214041      1.90265223     -0.52148354
H       0.51465505     -0.85546395      1.56157814
H       1.67540487      0.41740231      1.29719835
H       2.37282339     -0.70093560     -0.88428412
H       1.28381451     -2.03707757     -0.52032476
H       2.65330642     -1.71407597      0.53350523
