19
b3lypvtz=-218451.96739991
C       3.29890066     -0.27084984      0.10890899
C       1.96021771      0.31557830     -0.33609007
C       0.76255230     -0.50049671      0.15373647
C      -0.58096438      0.08639708     -0.25426382
O      -0.71331125      1.36901722      0.35170811
C      -1.74632603     -0.79949927      0.15802309
O      -2.94364061     -0.12241567     -0.23699290
H       3.36897600     -0.31130440      1.19833389
H       3.43317968     -1.28794220     -0.26761376
H       4.13536362      0.32890561     -0.25357470
H       1.86188438      1.33915112      0.02855463
H       1.93134050      0.37356453     -1.42867626
H       0.79024998     -0.57155033      1.24575453
H       0.83174142     -1.52193019     -0.23498233
H      -0.61348726      0.19245833     -1.34852139
H      -1.62693389      1.64435241      0.21070324
H      -1.72394520     -0.94509405      1.24327525
H      -1.67074886     -1.77597640     -0.33345766
H      -3.69510780     -0.52470054      0.20558072
