16
b3lypvtz=-204441.51241005
C       1.70160728      1.06791603     -0.23369944
C       0.94942387     -0.20542538      0.06156910
N       1.47960993     -1.33253194      0.31387040
C      -0.55588722     -0.14360932      0.02717159
C      -1.28361656     -1.43340061     -0.25066970
C      -1.23625761      0.92468143      0.78416248
O      -1.09218999      1.02596776     -0.62859213
H       1.50299394      1.39371687     -1.25556007
H       2.77222642      0.91263222     -0.10714169
H       1.38721361      1.88585837      0.41610773
H       2.49706425     -1.26367817      0.32415293
H      -1.04677293     -2.17364876      0.51135027
H      -0.97688123     -1.84305079     -1.21347952
H      -2.35822443     -1.25695038     -0.26947089
H      -2.24441109      0.73840999      1.14134133
H      -0.66394625      1.63924869      1.36700262
