13
b3lypvtz=-216160.73752728
C      -0.91555238     -1.40765248      1.07624590
C      -0.85634114     -0.42600508      0.17567595
O      -2.02207458     -0.03044630     -0.44496918
C       0.35401564      0.34055195     -0.16819695
C       0.30528482      1.51535758     -0.81748909
C       1.72669618     -0.13207640      0.17881110
O       2.02149838     -1.11530823      0.80993640
H      -1.85879848     -1.90044094      1.26329095
H      -0.04004799     -1.70567751      1.62528397
H      -1.82490636      0.27720074     -1.33607515
H       1.21722085      2.03987965     -1.07133903
H      -0.62322845      2.00178792     -1.08125684
H       2.51623350      0.54272909     -0.21011804
