14
b3lypvtz=-203640.5261474307
C       1.64138176     -0.65747891      0.46169368
C       0.95199031      0.52699502     -0.28817962
N      -0.43714554      0.00684470     -0.62279198
C      -0.13872871     -1.43516593     -0.90106971
C       0.51027347     -1.69481407      0.43054719
O      -0.55658248     -1.08629150      1.30049757
C      -1.02906909     -0.01627133      0.70218877
H       2.52121335     -1.02784738     -0.06452225
H       1.92693538     -0.41097737      1.48203564
H       1.44875239      0.77709761     -1.22249223
H       0.86407584      1.42774517      0.31484036
H       0.52352803     -1.52744316     -1.75883742
H      -1.05634521     -1.99573007     -1.06780066
H       0.70652050     -2.69866278      0.78609069
