13
b3lypvtz=-216172.2438673
C      -1.01820089     -1.02069006      0.51632929
C      -0.33515877      0.23182550      0.06584108
C       0.98587733      0.48633774      0.04786315
C       2.06029092     -0.42168566      0.47390778
O       3.23020142     -0.11372078      0.42391045
C      -1.22355157      1.32371818     -0.41922416
O      -2.42687753      1.24000769     -0.46106911
H      -1.61944379     -1.42646266     -0.29937736
H      -1.72065166     -0.78949329      1.31916612
H      -0.32871361     -1.78558594      0.86032823
H       1.33546141      1.44960712     -0.31077917
H       1.75894097     -1.41545633      0.84929285
H      -0.69817422      2.24159853     -0.74775280
