10
b3lypvtz=-279691.09595991
N      -2.01840090      1.08731790      0.05491467
C      -1.20544825      0.14480367     -0.05394585
F      -1.55480150     -1.17071137      0.08455043
C       0.21072768      0.27647074     -0.33753752
F       0.66143572      1.54438337     -0.49290545
C       1.09114463     -0.72421415     -0.45632245
O       2.39764900     -0.55490500     -0.72041068
H      -2.96021144      0.76047822      0.25643058
H       0.79259293     -1.75361444     -0.34337499
H       2.58541212      0.38999105     -0.80749874
