13
b3lypvtz=-190463.58875379
C      -0.24541277      1.82955524     -0.00000295
C      -0.31931958      0.49268314     -0.00000760
C      -1.61430639     -0.13058157     -0.00000120
N      -2.67660153     -0.57470636      0.00000360
C       0.86527839     -0.41162317      0.00000881
C       2.23476714      0.22081737      0.00000600
N       0.63342122     -1.66203409      0.00000517
H       0.70454445      2.34274685     -0.00000380
H      -1.13794758      2.43780001      0.00000595
H       2.37911108      0.85042665      0.88006909
H       2.37911231      0.85043453     -0.88005127
H       3.00227379     -0.55080571      0.00000311
H       1.49954145     -2.19993691      0.00000407
