13
b3lypvtz=-213762.58795319
C      -1.85138344      0.14721382      0.28788038
N      -0.96342490     -0.35705091     -0.75926227
C       0.37153464     -0.66114107     -0.32387060
C       1.27430916      0.54129246     -0.06275449
O       0.99669459      1.67960416     -0.33762164
C       2.58811361      0.21166184      0.53465831
N       3.59326910     -0.09227871      1.00718320
H      -1.99290005     -0.62871279      1.04265913
H      -1.49325283      1.05531927      0.78751578
H      -2.82573104      0.36098545     -0.14965572
H      -0.93787072      0.28923365     -1.53782655
H       0.34525965     -1.27428435      0.58235685
H       0.89538220     -1.27184280     -1.07126239
