18
b3lypvtz=-181880.269071
C      -2.20295462     -1.64569461     -0.21962068
C      -1.58894594     -0.66755211      0.10569386
C      -0.86316701      0.53625343      0.51279309
C      -1.08437260      1.68626918     -0.48616961
C       0.63214060      0.25336701      0.76813144
N       1.35396019     -0.12189821     -0.43483130
C       2.71803379     -0.56142835     -0.18076378
H      -2.73693465     -2.51473822     -0.51162050
H      -1.27616307      0.85308931      1.47678952
H      -0.54323495      2.57851121     -0.16470124
H      -0.74633841      1.40899521     -1.48458587
H      -2.14257932      1.93513583     -0.55649073
H       0.71188697     -0.57389443      1.47657771
H       1.06104099      1.13999202      1.26760760
H       1.36282237      0.64840720     -1.09060583
H       3.21657374     -0.76951894     -1.12772942
H       3.33077338      0.16514728      0.37716999
H       2.70126555     -1.48914680      0.39480974
