17
b3lypvtz=-191981.73287201
C      -1.45287929      0.15009014     -0.85693476
C      -0.28873302      0.01306086      0.11688165
C       0.56446387      1.30957854      0.33029960
N       1.72632952      0.55065092     -0.16023390
C       0.98391337     -0.56257042     -0.52446573
N       1.18826413     -1.64516004     -1.14255224
C      -0.69681481     -0.69649787      1.40427852
H      -1.81855782     -0.83621267     -1.14455205
H      -1.15395878      0.67103481     -1.76776614
H      -2.27726791      0.70305973     -0.40069913
H       0.66477957      1.65526613      1.36024176
H       0.26686851      2.14255090     -0.31038317
H       2.55507880      0.90992150     -0.60907211
H       2.14656610     -1.72568549     -1.48063705
H      -1.50856173     -0.16062111      1.90171089
H       0.14093165     -0.77037633      2.09919422
H      -1.04042215     -1.70808961      1.18468966
