14
b3lypvtz=-224527.29620463
C      -2.37651597      0.19779693      0.01454909
C      -0.96616830      0.51302052     -0.49061075
C      -0.28465166     -0.69354720     -1.06394585
N       0.94805553     -1.00456510     -1.05607888
O       1.71619572     -0.01827547     -0.40522576
N       3.04333215     -0.47749305     -0.38540609
N       3.72509790      0.36241468      0.18302776
H      -2.35101995     -0.52984900      0.82705329
H      -3.00211490     -0.21142341     -0.78119266
H      -2.86194049      1.09940107      0.38822510
H      -0.35146517      0.93795585      0.30146398
H      -1.01934826      1.27492374     -1.27648083
H      -0.89599471     -1.43399244     -1.57376133
H       4.67643810     -0.01646712      0.16858292
