20
b3lypvtz=-182669.57092524
C      -2.44844686     -0.64031060     -0.31610150
N      -1.61740457      0.30482386     -0.26610941
C      -0.68241526      0.35174040      0.84665180
C       0.76367105      0.59891574      0.37709183
C       0.90210422      1.97110703     -0.28956180
C       1.29544340     -0.51477168     -0.53922413
C       1.38512274     -1.89741644      0.10813314
H      -2.50273438     -1.43900036      0.43576527
H      -3.16104908     -0.68591612     -1.13731461
H      -0.74074334     -0.55478552      1.46510461
H      -0.97986106      1.19455064      1.47810841
H       1.37435498      0.59985045      1.28780180
H       0.57930184      2.77075153      0.38053344
H       0.29190960      2.02775896     -1.19105147
H       1.94008147      2.16558639     -0.56563302
H       0.66874697     -0.56494091     -1.43390262
H       2.29092930     -0.22151828     -0.88407697
H       0.40360822     -2.28889441      0.38018771
H       1.84299980     -2.61659794     -0.57295656
H       1.99258694     -1.87092473      1.01614710
