14
b3lypvtz=-227010.0645653
C       0.28969120     -1.01705931      0.15386279
C      -1.01395203     -0.23419070     -0.10078641
C      -0.71240034      1.15109193      0.52132704
N       0.73720227      1.24283594      0.71033126
C       1.23505796      0.09722943      0.50633447
O       2.54775487     -0.18371285      0.60435436
O      -1.26161564     -0.02975640     -1.49109640
H       0.61912210     -1.57975155     -0.72051246
H       0.20683427     -1.71823549      0.98837157
H      -1.87898248     -0.71338676      0.36577431
H      -1.06547101      1.93920056     -0.14444460
H      -1.21491368      1.28093767      1.48371666
H       2.99589662      0.63968108      0.84534677
H      -1.48422411     -0.87488357     -1.89365917
