13
b3lypvtz=-213742.27021927
C       3.25622725     -0.39857909      0.15571536
N       2.22872330     -0.05100152     -0.50297533
N       1.10909875      0.15833044      0.33058851
C       0.07437404      0.48561990     -0.33409545
C      -1.23252223      0.72767610      0.35384490
C      -2.16628397     -0.46543918      0.19378515
O      -3.24356260     -0.41591529     -0.33422351
H       4.17239735     -0.58280405     -0.39333759
H       3.24306930     -0.51511064      1.23868346
H       0.11874050      0.57017272     -1.42071605
H      -1.04456769      0.86114399      1.42209249
H      -1.73393607      1.60676398     -0.05145897
H      -1.77449594     -1.41268437      0.61504501
