11
b3lypvtz=-262250.69041316
C      -0.96175735      0.06421128      0.29162701
O      -0.93199667      0.44787411      1.43432574
N      -2.11513652     -0.30883755     -0.36508667
N       0.17229510     -0.11192015     -0.52442050
C       1.48185397      0.18562732     -0.20416963
N       2.45357309     -0.38047123     -0.75778338
F       1.58345376      1.17031978      0.69562797
H      -2.16788647     -0.21165822     -1.36552364
H      -2.95962654     -0.09377793      0.13837038
H       0.10630549     -0.77891379     -1.27716852
H       3.33892215      0.01754638     -0.46229645
