12
b3lypvtz=-223825.63190307
C       1.63663193     -0.25781274      0.27707373
C       0.43743330      0.34994114      0.11645521
C      -0.44389375     -0.74120041     -0.17405009
N       0.18118500     -1.89084463     -0.18593921
O       1.51929722     -1.59153190      0.11029577
N      -1.78673746     -0.60715062     -0.48034191
N       0.01652045      1.68345041      0.26151928
H       2.62123521      0.11007310      0.51130226
H      -2.25515385      0.08269590      0.09048622
H      -2.28237993     -1.48666970     -0.49278381
H       0.76024112      2.30224434      0.55115509
H      -0.40437924      2.04680509     -0.58517253
