14
b3lypvtz=-203638.52280461
C       0.01180917     -0.10291002     -1.09066252
C       0.30469627     -1.04652120      0.11204016
C      -1.02343133     -0.36020613     -0.03322967
N      -1.44082093      0.67600908      0.88103366
C       1.37535555     -0.07967012      0.55249150
C       1.09929432      0.81008136     -0.58164223
O       2.33564642      0.07776654     -0.50744477
H      -0.13853190     -0.39028038     -2.12170900
H       0.39948797     -2.12290834      0.08655236
H      -1.79373272     -1.04773314     -0.38494370
H      -1.84567084      0.27079207      1.71715008
H      -2.15136621      1.26033528      0.45572200
H       1.69982084      0.16925042      1.55150641
H       1.16744340      1.88599458     -0.63686431
