13
b3lypvtz=-213776.97181948
N      -0.51365794      1.67680070     -2.29884280
C      -0.98574830      1.09670032     -1.42471330
C      -1.56321120      0.33151350     -0.32419826
C      -0.59876225     -0.73967695      0.21957805
N       0.52475646     -0.12597231      0.89337126
C       1.68270592     -0.34008990      0.44757369
O       2.78478688      0.18938710      1.00096296
H      -2.48324643     -0.14066978     -0.67508668
H      -1.82769282      1.01898457      0.48105062
H      -1.15564934     -1.33682919      0.94488617
H      -0.29658941     -1.40639121     -0.59801038
H       1.93460280     -0.96319390     -0.41218682
H       2.49770564      0.73943705      1.74541547
