16
b3lypvtz=-204452.2605241
C      -2.28474957     -0.01638610      0.35493676
C      -0.96272354     -0.08052457     -0.39823326
C      -0.19142292      1.21582752     -0.28563929
N       1.01540009      1.35475121      0.06650433
C       1.77564127      0.13785566      0.35992598
C       1.15177585     -1.11105816     -0.23791620
O      -0.22622755     -1.18141177      0.11095456
H      -2.81021546     -0.96585174      0.25775771
H      -2.10978477      0.17675290      1.41362631
H      -2.91959696      0.77438130     -0.04674087
H      -1.17519675     -0.24527492     -1.46892764
H      -0.75392803      2.11852909     -0.53486134
H       2.79188450      0.27901192     -0.01636753
H       1.85294440      0.04478437      1.44695814
H       1.61693659     -2.01869313      0.14593465
H       1.26362686     -1.10473158     -1.33101733
