13
b3lypvtz=-239661.40008009
C      -1.41727845      0.42873765     -1.18345215
C      -0.87743866      0.38685430      0.22419718
N      -1.50873636      0.70452275      1.28366738
C       0.51503180     -0.06788962      0.36870044
F       1.01056332     -0.08451739      1.62714308
N       1.23064014     -0.43465864     -0.61066397
N       2.52701413     -0.77589672     -0.38973572
H      -2.45099442      0.77130110     -1.17504568
H      -1.36936838     -0.55663489     -1.64754416
H      -0.82243203      1.09756701     -1.80612866
H      -2.45754430      1.00047077      1.05609235
H       2.74919092     -1.09338232      0.54637533
H       2.87155229     -1.37667401     -1.12020542
