21
b3lypvtz=-195913.85965745
C      -2.62760197      0.56377307      0.80538124
C      -2.02956874     -0.73896819      0.27215799
C      -0.76206543     -0.55218126     -0.56973813
C       0.45704081     -0.03329322      0.19834672
C       1.67250913      0.16257456     -0.71157002
C       2.87134628      0.79214496     -0.00453734
O       0.77085772     -0.87798287      1.31339296
H      -1.95050469      1.06763984      1.49633017
H      -3.55772159      0.37411402      1.34347128
H      -2.85198050      1.25834476     -0.00810991
H      -1.80597010     -1.40491456      1.10805656
H      -2.77747412     -1.24975061     -0.34024361
H      -0.49191745     -1.50920633     -1.03266377
H      -0.97021890      0.13522264     -1.39626749
H       0.21363628      0.92706895      0.65989913
H       1.95409050     -0.81135786     -1.12975482
H       1.37467348      0.78260455     -1.56215139
H       3.16866970      0.19977872      0.86036441
H       2.63215234      1.79727784      0.34989540
H       3.72806520      0.87230339     -0.67519939
H       0.98198203     -1.75519239      0.97434470
