17
b3lypvtz=-191982.644888
C      -0.88474789      1.36046980     -0.88766693
C      -0.49935501      0.11962031     -0.10008055
C       0.98635944     -0.15756773     -0.06317036
N       1.59830596     -1.10198272     -0.66394052
N       1.70999782      0.78030280      0.64603221
C      -1.30152393     -0.21628198      1.13676715
C      -1.43880828     -1.05035259     -0.11363165
H      -0.57629098      1.26796704     -1.93088731
H      -0.41194911      2.25449500     -0.47909436
H      -1.96574302      1.50717117     -0.86661951
H       0.94550821     -1.65685800     -1.20958481
H       1.25240363      1.22726703      1.42251274
H       2.67822156      0.54250100      0.79418688
H      -0.78885424     -0.66646337      1.97636239
H      -2.11387280      0.44495511      1.40891305
H      -2.34745580     -0.95772397     -0.69293084
H      -1.02277653     -2.04798691     -0.08989859
