13
b3lypvtz=-237072.88999129
C       2.70718815     -0.64906205      0.06047255
N       1.96638651      0.58738873     -0.07145646
N       0.64515030      0.66697678     -0.01389963
C      -0.10163267     -0.37956386     -0.03278205
C      -1.57103091     -0.19524992     -0.00263994
O      -2.34013204     -1.12179472     -0.00670263
O      -1.99511464      1.08586747      0.03295474
H       3.76817704     -0.41088977      0.06994460
H       2.45123094     -1.18082290      0.98377412
H       2.50991733     -1.31271260     -0.78449185
H       2.42465649      1.45556483      0.13970141
H       0.25186741     -1.40370349     -0.07430882
H      -1.20605189      1.65225749      0.02690297
