14
b3lypvtz=-224571.15135456
N      -2.46111989      0.67442901      0.71561267
C      -2.02055152      0.32942851     -0.54532614
C      -0.94889788     -0.42613837     -0.81889284
N      -0.20408698     -1.03910425      0.23514304
N       1.16902891     -0.78173782      0.34282987
C       1.61153208      0.32721018     -0.06135302
O       2.93988560      0.59891366      0.10170223
H      -3.44657018      0.84500759      0.81998061
H      -2.05297080      0.13413766      1.46363646
H      -2.58715489      0.75925690     -1.36265301
H      -0.62135754     -0.56163332     -1.84594927
H      -0.30208780     -2.04392377      0.25447766
H       1.01183687      1.10906699     -0.52549584
H       3.11968804      1.47409902     -0.25212842
