16
b3lypvtz=-181109.6502885
C       2.79198696     -0.28187662      0.22328043
C       1.64911693      0.38746312      0.14233046
C       0.31282283     -0.24627972     -0.06282913
C      -0.75980204      0.08788869      0.98640243
C      -2.08601940     -0.47676322      0.55305563
C      -1.55664163      0.75460187     -0.11933890
N      -0.50510305      0.47815558     -1.09910401
H       3.73659713      0.22126730      0.38278914
H       2.82361162     -1.36173474      0.13247894
H       1.64080334      1.46979613      0.22560958
H       0.43379860     -1.31866409     -0.24692772
H      -0.56524511      0.42465993      1.99331701
H      -2.90048703     -0.31734167      1.24857094
H      -2.12823423     -1.41778932      0.01378745
H      -2.08756922      1.69703117     -0.12594193
H      -0.79963570     -0.10041442     -1.88022211
