16
b3lypvtz=-204461.9163073
C       1.97963734     -0.32093739     -0.90521041
C       1.65351325      0.20226996      0.49276363
C       0.15812987      0.26149979      0.83105541
C      -0.68684363      1.20658006     -0.06343968
O      -1.70077798      0.34213922     -0.64376649
C      -1.45315276     -0.88889654     -0.13102938
N      -0.49369475     -1.05696157      0.67135708
H       3.05837670     -0.33422861     -1.06616893
H       1.54232784      0.29902036     -1.69073456
H       1.60718423     -1.33701772     -1.03476879
H       2.13449126     -0.43463214      1.23822544
H       2.07138861      1.20510730      0.62592358
H       0.06623462      0.55183395      1.88010522
H      -1.19513191      1.98983516      0.49674868
H      -0.12312627      1.65838575     -0.87918503
H      -2.13343841     -1.65966460     -0.46969975
