18
b3lypvtz=-181899.43327936
C      -2.62806601     -0.00000012      0.09015694
C      -1.15221374      0.00000001      0.40861550
C      -0.18409122     -0.75653247     -0.46073758
C       1.15395301     -1.18052513      0.15590931
N       2.04293391      0.00000018      0.13870901
C       1.15395287      1.18052536      0.15590879
C      -0.18409132      0.75653226     -0.46073788
H      -3.12283356     -0.88259768      0.50199734
H      -2.79679836     -0.00000029     -0.98865497
H      -3.12283364      0.88259754      0.50199706
H      -0.92070126      0.00000021      1.47068044
H      -0.57489948     -1.31335004     -1.30269751
H       1.01625968     -1.51186303      1.18946479
H       1.61479782     -2.00425323     -0.38898384
H       2.54092687      0.00000002     -0.74347671
H       1.61479755      2.00425325     -0.38898479
H       1.01625956      1.51186374      1.18946412
H      -0.57489968      1.31334942     -1.30269804
