17
b3lypvtz=-194354.71817412
C      -2.20776691      0.51565593      0.06930209
C      -0.82135887      0.14139429     -0.42885814
C       0.37546247      0.70394719      0.43437471
C       1.41008533      1.59805701     -0.22608360
C       0.76892132     -0.75001172      0.73697458
O       1.00087479     -1.41196995     -0.51560505
C      -0.35004979     -1.27173845     -0.05706905
H      -2.98421329     -0.01633063     -0.48495701
H      -2.38979398      1.58568153     -0.04841079
H      -2.32973409      0.27290661      1.12772228
H      -0.72540999      0.34270495     -1.49758229
H      -0.02618038      1.17498957      1.33496876
H       2.21438852      1.85122555      0.46853792
H       1.85138505      1.10015772     -1.08972736
H       0.96084128      2.53363123     -0.56613430
H       1.27341954     -1.15585564      1.60370206
H      -0.93349699     -2.17655518      0.05258620
