15
b3lypvtz=-191215.46860993
N       0.98807807     -2.28110875      0.00706965
C       0.67742727     -1.17245845     -0.04648846
C       0.25109574      0.20139527     -0.12276373
C      -1.18395170      0.38654346     -0.59299974
N      -2.13191365     -0.12303709      0.39734958
C       1.29609289      1.23255776     -0.51152533
C       0.81484693      1.16255770      0.90326303
H      -1.36018607      1.45746796     -0.71013391
H      -1.28427029     -0.06772183     -1.58811434
H      -2.04822796     -1.13018674      0.48252833
H      -3.08226124      0.06497028      0.10181265
H       2.29162032      0.87695795     -0.73310054
H       0.95582011      2.04631648     -1.13688077
H       0.12873198      1.91659813      1.26142064
H       1.48396660      0.76444085      1.65162293
