17
b3lypvtz=-215288.88156832
C      -1.78074895      1.15126628     -0.57829456
C      -1.12230844     -0.17961180     -0.26674684
O      -2.16106768     -1.07102732      0.14267585
C      -0.07026796     -0.07516161      0.85277464
N       1.07954725      0.74213214      0.52431047
C       2.20445878      0.28759410     -0.11473607
N       2.46192463     -0.86112008     -0.60110912
H      -1.03845902      1.88366819     -0.89524008
H      -2.29952516      1.53116806      0.30441128
H      -2.51157522      1.03244626     -1.37725470
H      -0.63414720     -0.55807918     -1.17262824
H      -1.80742279     -1.96421692      0.19474107
H      -0.55240019      0.33432756      1.74201799
H       0.27097317     -1.08211150      1.11494785
H       1.10705785      1.68079964      0.87949490
H       2.96901196      1.06057793     -0.19638458
H       1.68944096     -1.51547175     -0.48514584
