12
b3lypvtz=-226187.58415792
O       1.96664175     -0.29809089      0.71340785
C       1.00436902      0.29270708     -0.09430212
C      -0.07488441     -0.63359681     -0.74808605
N      -0.62347274     -0.78398421      0.67886562
C      -0.34680614      0.72305498      0.56865568
C      -0.98020749      0.60306049     -0.82376657
O      -1.84430089      1.07970177     -1.49318699
H       1.50244700     -0.93540730      1.27500150
H       1.48969635      1.01783863     -0.74154234
H       0.05434933     -1.48317499     -1.41097685
H      -1.62295608     -0.98811543      0.68276177
H      -0.52477571      1.40590668      1.39326850
