15
b3lypvtz=-191229.07551908
C      -1.31603771      1.70191609     -0.13720450
C      -0.71666075      0.35817083      0.32820223
C      -1.68164499     -0.72777913      0.08856722
N      -2.43877104     -1.57032750     -0.11606929
C       0.60724047      0.04574240     -0.32408387
C       1.74467454     -0.08520217      0.36275743
N       3.01342047     -0.26603543     -0.16444954
H      -2.27771155      1.89120670      0.34039691
H      -1.46574683      1.70123466     -1.21705387
H      -0.62908230      2.50901427      0.11464582
H      -0.56736775      0.40408911      1.41102595
H       0.60263133     -0.05459952     -1.40469028
H       1.73366219      0.00705287      1.44416791
H       3.66469065     -0.75465073      0.42768520
H       3.05230728     -0.58578645     -1.12012632
