11
b3lypvtz=-259610.44575759
N      -0.31117584      1.74385773     -0.00020723
C      -0.82714796      0.50727045      0.00001601
O      -2.02731477      0.25705624      0.00000691
C       0.11750079     -0.69096999     -0.00001026
O      -0.56476168     -1.84294911     -0.00006814
N       1.39185470     -0.76623670     -0.00003749
O       2.03119377      0.49589119      0.00008726
H       0.68637471      1.87934382     -0.00027861
H      -0.94866555      2.52224679     -0.00039004
H      -1.50473843     -1.56911942     -0.00007771
H       2.95979925      0.24759000     -0.00000469
