15
b3lypvtz=-191203.00833001
C      -1.21276584      1.37504585      0.05003483
C      -0.75636628     -0.04975096      0.07775556
N      -1.75389399     -0.99810425      0.12586602
C       0.54974005     -0.42116723      0.12176756
N       0.84487496     -1.83729668      0.14604456
C       1.62574141      0.50125837      0.15019219
C       2.59589464      1.21936326      0.16101816
H      -1.82057247      1.59823894      0.93035120
H      -0.36988819      2.05932060      0.02434636
H      -1.83533833      1.55886318     -0.83082550
H      -1.42956842     -1.93810714     -0.05507900
H      -2.62986247     -0.75344344     -0.30598777
H       1.61565868     -2.04700740     -0.47739236
H       1.13742683     -2.13045029      1.07310940
H       3.43871941      1.86313719      0.17679880
