13
b3lypvtz=-239674.26020277
N      -2.78807730     -0.10452482      0.06954384
C      -1.53073669     -0.25104669      0.12767333
N      -0.56668931      0.73141014     -0.07872097
C       0.81409876      0.62958112      0.04235202
N       1.63617746      1.59181671     -0.09403987
C       1.38912317     -0.72010680      0.40584602
F       0.98026679     -1.70581055     -0.49183008
H      -3.06101570      0.85439362     -0.15341556
H      -1.12300617     -1.23164853      0.34449366
H      -0.91519456      1.64686188     -0.32784235
H       1.17172343      2.48021830     -0.28548612
H       1.06947752     -1.02704889      1.40486285
H       2.47138060     -0.63951149      0.36863624
