17
b3lypvtz=-215279.59250165
N      -1.88553663     -0.86646401     -0.34745754
C      -0.65832037     -0.63142107      0.41469331
C      -0.64592546      0.78781617      0.98086752
O      -0.00015494      1.61213947     -0.00003584
C       0.64588432      0.78789451     -0.98083548
C       0.65836528     -0.63136515     -0.41469827
N       1.88560038     -0.86637343      0.34743445
H      -1.83100094     -1.73734374     -0.86316215
H      -2.03981464     -0.12805400     -1.02446621
H      -0.60550942     -1.37835017      1.20953931
H      -0.08889122      0.83615086      1.92233341
H      -1.65423831      1.16393057      1.15641517
H       1.65418958      1.16411061     -1.15621867
H       0.08899562      0.83619827     -1.92238581
H       0.60560087     -1.37826916     -1.20957075
H       1.83113338     -1.73730182      0.86306443
H       2.03982452     -0.12801090      1.02450712
