17
b3lypvtz=-194378.36677854
C      -2.53470726      0.19762766     -0.19632364
O      -1.32897976     -0.50162411     -0.41676435
C      -0.30197117     -0.22219309      0.54271494
C       0.31668454      1.14651543      0.35955664
C       1.53313031      1.07226645     -0.17027766
C       1.97719828     -0.34629595     -0.40620716
C       0.87806601     -1.18135706      0.29084009
H      -3.25850083     -0.17443386     -0.92002681
H      -2.42376708      1.27852285     -0.33984747
H      -2.92327149      0.01995429      0.81530058
H      -0.73271776     -0.35337588      1.54414083
H      -0.20091150      2.06568399      0.59784215
H       2.14684035      1.92536979     -0.43148040
H       2.04450432     -0.55609356     -1.47825079
H       2.96887448     -0.54266765      0.00800341
H       0.54356350     -2.03262090     -0.29912461
H       1.24735807     -1.56143140      1.24359426
