11
b3lypvtz=-217978.74408197
C      -3.13576219     -0.73815695      0.00004874
C      -2.21752582      0.03893781     -0.00000890
C      -1.19229072      1.01208511      0.00001063
C       0.12918846      0.76463001     -0.00000736
N       0.62666389     -0.53379118      0.00001548
C       1.85297326     -0.77587969      0.00000232
F       2.82890694      0.16501745     -0.00001779
H      -3.93014515     -1.44187208     -0.00004682
H      -1.50959852      2.04854025      0.00003681
H       0.82402476      1.59720544     -0.00004231
H       2.27538209     -1.77236117      0.00000421
