14
b3lypvtz=-203675.25027523
O      -1.62959275     -0.18435769      2.04215334
C      -1.07426969     -0.00388374      1.00560508
C      -0.27231571      1.11264894      0.30774853
C       1.11664091      0.43541104      0.21644864
C       0.66278895     -0.98448240     -0.27368856
C      -0.86474336     -0.74071925     -0.33229465
N      -1.00809125      0.63752712     -0.91294046
H      -0.33978352      2.16149002      0.57851791
H       1.63843809      0.40889223      1.17322157
H       1.75735728      0.94456357     -0.50354622
H       1.06014251     -1.23772463     -1.25657795
H       0.93809502     -1.78150706      0.41720467
H      -1.51884983     -1.52701463     -0.69531565
H      -0.46591665      0.75905648     -1.76663626
