13
b3lypvtz=-237036.40525388
C      -2.55711825      0.44927851      0.82770234
N      -1.13771379      0.33568881      0.55911764
C      -0.75233027      0.53275767     -0.61325305
O       0.52994989      0.47194115     -1.06288320
N       1.47939414      0.14864602     -0.05732173
C       2.63507328      0.11361288     -0.57726216
O       3.71343587     -0.17161084      0.16724347
H      -3.16024745      0.70457938     -0.05469276
H      -2.92542353     -0.49403830      1.23576218
H      -2.72215478      1.21274701      1.59041343
H      -1.38193406      0.78643283     -1.47109740
H       2.86083469      0.30032048     -1.62157077
H       3.41823427     -0.32238291      1.07784202
