14
b3lypvtz=-203671.13780404
C       2.59939888     -0.05651199      0.09525344
O       1.34931989     -0.69255416     -0.19910594
C       0.23792472      0.03866362      0.02337753
N       0.28434263      1.21911020      0.46544097
C      -0.97836606     -0.80104054     -0.34428892
C      -2.25055049     -0.12574089     -0.14635984
C      -3.29379414      0.44069234      0.02162263
H       3.36332883     -0.79144935     -0.14303517
H       2.72511820      0.84031153     -0.51018116
H       2.64859973      0.22348511      1.14685496
H      -0.65134710      1.60243574      0.56642368
H      -0.87066469     -1.11049720     -1.38762132
H      -0.94154927     -1.72196738      0.24415512
H      -4.22176112      0.93506298      0.16746402
