13
b3lypvtz=-216086.97075775
C       0.98501561      1.32880836     -0.44859387
C      -0.36920891      0.69699063     -0.04167083
C      -1.58933597     -0.22055806     -0.38165176
O      -0.95852939     -1.30452812      0.40664987
C       0.30553073     -0.62593410      0.08551383
C       1.57415870      0.16487467      0.53145823
O       2.43805172      0.14018039      1.33953212
H       1.19770822      2.34024437     -0.11425927
H       1.29696448      1.18772218     -1.48039716
H      -0.57800339      1.05297275      0.96945154
H      -1.67394784     -0.51295266     -1.43048522
H      -2.55019892      0.06381916      0.03956182
H       0.59329494     -0.98443958     -0.91540931
