13
b3lypvtz=-262788.04134642
C      -0.20628355     -0.51437737      0.75826611
C       1.27626465     -0.26787540      0.53989479
O       1.66512337      1.03449734      0.89420458
O       1.55762956     -0.55843321     -0.81092562
O      -0.92074587      0.53716238      0.07387232
C      -2.25986870      0.45749615      0.09201289
O      -2.90450281     -0.40151033      0.62246431
H      -0.50187467     -1.48217635      0.35823180
H      -0.44299494     -0.47517650      1.82065479
H       1.84098481     -0.92552230      1.20857246
H       1.08377792      1.64641062      0.42459056
H       2.48772462     -0.35995236     -0.96415254
H      -2.67523440      1.30945734     -0.46084715
