10
b3lypvtz=-246384.97193687
C      -0.70637036      0.01536717      0.12203708
N       0.42537779      0.64840137     -0.02290632
C       1.31570424     -0.38900500      0.03283342
N       0.82472630     -1.58545503      0.20095084
O      -0.58529905     -1.30386718      0.26412910
O       2.63093183     -0.19147474     -0.07668611
N      -1.95183933      0.53876958      0.10003289
H       2.76981642      0.75535047     -0.19851192
H      -2.69991398     -0.02198052      0.46960302
H      -2.02313386      1.53389386      0.21994650
