16
b3lypvtz=-204463.43321733
C       2.69370976      0.22640240     -0.03842917
C       1.43441747      0.62717291      0.09436771
C       0.31531203     -0.36424615      0.01334897
O       0.54698527     -1.56652107     -0.01078206
N      -0.96697324      0.12536542     -0.01983887
C      -2.07727197     -0.81240067      0.03548140
C      -1.33722194      1.53014333     -0.05820582
H       3.51823531      0.92253821      0.03625668
H       2.91675475     -0.81647651     -0.22014604
H       1.22101309      1.66818603      0.28905627
H      -1.68010886     -1.81882556      0.10923798
H      -2.69382102     -0.73198293     -0.86389641
H      -2.70916087     -0.60391278      0.90364669
H      -1.55218389      1.92966639      0.93885882
H      -2.23959585      1.63879385     -0.66185586
H      -0.56602203      2.13643913     -0.52217526
