12
b3lypvtz=-226233.0582571959
C       0.89505482     -0.97079853     -0.28161262
C       2.15301561     -0.59429057     -0.35794008
O       3.26937117     -0.26808153     -0.42741757
C      -0.21003752     -0.08829517      0.09468979
N       0.02002651      1.29401908      0.41578536
H       0.63925835      1.40617320      1.21093520
H       0.41851819      1.80853586     -0.36193497
H      -2.11295804      1.16470813      0.67663483
C      -1.48239198     -0.50981075      0.16195453
O      -2.51409339      0.29367093      0.50844729
H       0.70721925     -2.01081092     -0.52045735
H      -1.78298299     -1.52501973     -0.05532154
