13
b3lypvtz=-237065.28753203
C      -2.73658348     -0.69190595      0.00032517
C      -1.50054694      0.18087989      0.00014991
O      -1.55475925      1.39283029      0.00005899
N      -0.29956331     -0.50307578      0.00011780
C       0.93157999      0.13089799     -0.00002063
N       1.98960054     -0.57256547     -0.00002805
O       3.13214493      0.24926755     -0.00017493
H      -3.33352980     -0.44721829      0.87858708
H      -3.33368210     -0.44736346     -0.87787372
H      -2.52193581     -1.75986251      0.00039481
H      -0.29428930     -1.51045907      0.00020320
H       0.90644748      1.21417406     -0.00010838
H       3.84968805     -0.39136823     -0.00016027
