15
b3lypvtz=-219539.42635834
C      -0.84677873     -1.26851774     -1.01827512
C      -0.76407458     -0.68432074      0.39330437
C      -1.42820763      0.68169703      0.48835990
F      -0.81150625      1.60172216     -0.35502121
C       0.68039403     -0.68397357      0.94907764
C       1.67866024     -0.03442168      0.10151402
N       2.49089449      0.44346949     -0.55785499
H      -1.88534299     -1.34362938     -1.34309679
H      -0.41078917     -2.26771270     -1.05540685
H      -0.31444930     -0.64000088     -1.73123235
H      -1.33567831     -1.32582030      1.07277902
H      -1.37278800      1.08100802      1.50421182
H      -2.47704904      0.61458921      0.19020589
H       0.70499998     -0.20763271      1.93206480
H       1.00589728     -1.71687220      1.09305385
