13
b3lypvtz=-190482.18686703
N       2.32727055      0.13960850      0.00000956
C       1.04493797      0.07465813      0.00000375
C       0.21029325      1.26248742      0.00000221
C      -1.14104595      1.19142655      0.00000087
C      -1.81951475     -0.06926305      0.00000575
C      -1.06549062     -1.19138829      0.00000861
N       0.29966974     -1.12030437      0.00000391
H       0.82590738     -1.97925617      0.00001323
H       2.76147339     -0.78208958      0.00001199
H       0.73589053      2.20569831      0.00000176
H      -1.72422507      2.10358640     -0.00000341
H      -2.89599116     -0.13346032      0.00001024
H      -1.48348927     -2.18790255      0.00001153
