16
b3lypvtz=-181107.3421204
N       1.91583235      0.69173861      0.50009801
C       1.36168037     -0.43358344     -0.21069803
C       0.02543965     -1.01330635      0.15487776
C      -0.96319671      0.04147365      0.57358757
C      -2.08586598      0.15784835     -0.41944148
C      -0.75687552      0.77681033     -0.75212419
C       0.23477938     -0.26752501     -1.18951202
H       2.60274255      1.17275885     -0.06864935
H       2.38283097      0.38723247      1.34622806
H       2.05852040     -1.20885864     -0.53213272
H      -0.09838430     -2.07902834      0.30061656
H      -1.02056053      0.49357276      1.55327829
H      -2.43326717     -0.71643063     -0.95847572
H      -2.86930075      0.85717449     -0.15351687
H      -0.64196925      1.84349420     -0.88045534
H       0.28769452     -0.70337130     -2.17928053
