15
b3lypvtz=-216820.22115655
C       0.53994754     -0.06040081      0.50541456
C       0.51188695     -0.00937994      2.02265208
C       0.56399259      1.50162299      2.48104597
O      -0.93219436      1.44397913      2.44510627
C      -0.72213371     -0.00167264      2.78373118
C      -0.78632983     -1.54130970      2.52473634
O       0.70170373     -1.43995938      2.51700079
H       0.07091084      0.82178579      0.07155669
H       0.05717556     -0.94805975      0.10260739
H       1.58607943     -0.08182896      0.19019700
H       0.91794903      1.67905876      3.49659822
H       0.94339771      2.23938017      1.77661125
H      -0.49633270      0.03029858      3.85274596
H      -1.16291103     -1.88276922      1.56313186
H      -1.13814174     -2.16554500      3.34246445
