15
b3lypvtz=-216916.27178524
C       3.07001995     -0.55911814      0.20317400
C       2.32256587      0.42988481     -0.28568662
C       0.88609061      0.61761994     -0.07194681
C      -0.00494248     -0.35845663      0.09219160
C      -1.46727598     -0.14257320      0.34213008
O      -2.16048072     -1.08252018     -0.45830525
O      -1.82197757      1.19081245      0.03795817
H       4.12631797     -0.62634238     -0.01876305
H       2.65560507     -1.32380412      0.84812554
H       2.80758170      1.19620712     -0.88301460
H       0.52389863      1.63926235     -0.08271201
H       0.28930227     -1.39995997      0.04710661
H      -1.69471235     -0.33777786      1.40147527
H      -3.08918232     -1.08358761     -0.20550514
H      -2.58108466      1.44532343      0.56941222
