14
b3lypvtz=-201301.48999891
C      -1.48297178     -1.39037343     -0.01090566
N      -0.27065953     -0.60500902     -0.00690545
N       0.94295471     -1.21626763      0.02439111
C       1.81738665     -0.22182517      0.01825448
C       1.19090586      1.03901206      0.00721736
C      -0.16090008      0.74790998     -0.00214047
N      -1.29292343      1.56583024     -0.08762169
H      -1.86468235     -1.55293054      1.00061945
H      -2.24277976     -0.88202399     -0.60344263
H      -1.25646066     -2.35451989     -0.45749329
H       2.87301237     -0.44158201      0.02763199
H       1.64639571      2.01392521      0.01338848
H      -1.96552490      1.41289541      0.65237467
H      -1.04696282      2.54366079     -0.11877636
