14
b3lypvtz=-227030.73182201
C      -1.41660624      1.39858164     -0.00000325
C      -1.22795480      0.07947649     -0.00001618
C      -2.35288335     -0.91723948      0.00003585
N       0.03204686     -0.55407971     -0.00006248
C       1.26644990      0.02730102     -0.00007277
O       1.52606175      1.20618223      0.00006074
O       2.22286247     -0.94838285      0.00004309
H      -2.42715286      1.77909025      0.00004339
H      -0.59848988      2.09820707     -0.00004027
H      -3.31347962     -0.40884287      0.00008423
H      -2.30744362     -1.56297058      0.88185922
H      -2.30753052     -1.56296756     -0.88179413
H       0.03585153     -1.56021516     -0.00008245
H       3.07056938     -0.48588949      0.00014403
