17
b3lypvtz=-217697.11640565
C       2.17580054     -0.50117413     -0.03281008
C       1.22464567      0.64063116     -0.38449308
C      -0.23894218      0.40969392      0.05237037
C      -1.10253910      1.63396619     -0.29226575
O      -0.29907605      0.16723692      1.44470609
C      -0.80498323     -0.78846623     -0.68770660
O      -1.24352337     -1.75909044     -0.12141689
H       3.19760690     -0.24952198     -0.31867497
H       2.16082970     -0.69527250      1.03862912
H       1.91084260     -1.42856151     -0.54514440
H       1.24329456      0.83608134     -1.46065256
H       1.55485607      1.56044445      0.10358974
H      -2.13471358      1.47225597      0.01864785
H      -0.71560886      2.49876950      0.24637272
H      -1.08440626      1.85514356     -1.36090544
H      -0.70613181     -0.70575152      1.55686825
H      -0.80451462     -0.72076170     -1.79247138
