13
b3lypvtz=-239457.06486037
O       1.94297203     -1.01349243     -0.47646882
C       1.05280207     -0.17968276      0.20653339
C      -0.35683431     -0.71081072      0.63381750
C      -0.99551243      0.64034951      0.17926657
O      -2.21784574      0.66030166     -0.49946171
C       0.27032601      0.80961578     -0.66765122
O       0.41285688      1.22599992     -1.78110146
H       2.57707001     -1.38447743      0.14304796
H       1.52957492      0.34969618      1.03835817
H      -0.48870848     -0.99273689      1.67529787
H      -0.66495930     -1.52016278     -0.02635019
H      -1.03090071      1.34493104      1.01498681
H      -2.03084095      0.77046891     -1.44047487
