13
b3lypvtz=-213761.57163257
N      -2.55777990      1.60944528     -1.11242330
C      -2.07308327      0.62265804     -0.77595970
C      -1.45619020     -0.62753889     -0.31713547
N      -0.02106151     -0.63824361     -0.57307164
C       0.76072303      0.25954554      0.26665456
C       2.17021621      0.40397399     -0.27142257
O       3.14597864      0.51141576      0.42221926
H      -1.91526027     -1.44978350     -0.86865794
H      -1.72481052     -0.75703633      0.74225245
H       0.31853307     -1.58820939     -0.49638314
H       0.80824763     -0.01868882      1.32709010
H       0.31060529      1.25783890      0.20858719
H       2.23378181      0.41462305     -1.37824980
