22
b3lypvtz=-183439.37444116
C      -1.71072276     -1.14068157     -0.03951554
C      -0.85098712      0.05347700     -0.45367339
N      -1.48944281      1.26873601      0.07859799
C       0.63813469     -0.02916500      0.00856159
C       1.32583457     -1.22275111     -0.67477328
C       0.74957327     -0.17021935      1.53432130
C       1.36643131      1.25512440     -0.42938609
H      -1.82481145     -1.18462180      1.04385111
H      -1.29388174     -2.08510766     -0.38501630
H      -2.70894067     -1.04907916     -0.47445408
H      -0.81860642      0.06637808     -1.55452855
H      -1.14827350      2.09706470     -0.39221967
H      -2.48861732      1.23530073     -0.08396045
H       1.23960762     -1.16240742     -1.76261876
H       2.38933143     -1.23832078     -0.42837125
H       0.90521661     -2.17698942     -0.35672457
H       0.19128329      0.61986518      2.03555920
H       0.36559775     -1.13094509      1.88073838
H       1.79441278     -0.10580775      1.84574670
H       0.99433981      2.13118401      0.10279747
H       1.25431752      1.42915541     -1.50324228
H       2.43466914      1.17797060     -0.21855154
