18
b3lypvtz=-181890.48226459
C       3.01386417     -0.04535173      0.51994153
C       1.90225559     -0.26156178     -0.51588584
C       0.72625958      0.64902076     -0.31013187
C      -0.51348195      0.25755890     -0.06514911
C      -1.83892685      0.96354129      0.14306272
N      -2.52832292     -0.34785654     -0.03703578
C      -1.22900684     -1.07751661      0.03710095
H       3.86621381     -0.69792717      0.32314953
H       3.37232646      0.98593093      0.50121654
H       2.65392461     -0.25202079      1.52911275
H       1.57336169     -1.30282180     -0.49060085
H       2.31756078     -0.09297555     -1.51558348
H       0.92962204      1.71662655     -0.35929117
H      -2.12209970      1.71826321     -0.59460645
H      -1.94475614      1.39903737      1.14405803
H      -3.17407598     -0.57968886      0.70629985
H      -1.05002138     -1.59549825      0.98738533
H      -1.07596699     -1.78989092     -0.77725770
