17
b3lypvtz=-215251.16112043
C       0.96166287      1.62845074     -0.35780485
C       0.34433551      0.47453360     -0.10072683
N       0.97238470     -0.69599626      0.34286481
O       2.37268298     -0.73005482      0.09216632
C      -1.16324105      0.30587551     -0.19789578
C      -1.82112768      0.13055605      1.17409875
N      -1.45338521     -0.87958260     -1.02689429
H       0.38587544      2.49407982     -0.65000706
H       2.03315934      1.72630581     -0.28240741
H       0.56059162     -1.50835855     -0.10529005
H       2.75647720     -0.76539688      0.97479088
H      -1.54922747      1.22950611     -0.64333525
H      -2.90574353      0.04936612      1.06771867
H      -1.60723696      0.98943920      1.80944782
H      -1.45410351     -0.76687371      1.67065187
H      -1.21909118     -0.69910679     -1.99655768
H      -2.44041305     -1.10426636     -0.99333694
