15
b3lypvtz=-191238.91324238
C      -1.50931858     -1.57073524      0.00000301
C      -0.28010740     -0.71847887      0.00000151
C       1.03538394     -1.12512340     -0.00000386
N       1.79176031     -0.00108256     -0.00000550
H       2.79294658      0.07030430     -0.00002178
N       1.05288093      1.12296946      0.00001006
C      -0.20802884      0.70094086     -0.00000313
C      -1.33968810      1.67592863     -0.00000206
H      -2.13193833     -1.38194915     -0.87824666
H      -2.13192087     -1.38196846      0.87826936
H      -1.25495206     -2.63076684     -0.00001108
H       1.47486968     -2.10863782     -0.00000186
H      -1.97654290      1.55018052      0.87907268
H      -0.95243478      2.69316439      0.00000799
H      -1.97653359      1.55019417     -0.87908570
