16
b3lypvtz=-204462.82959087
N       2.39512069     -0.50557712      0.21634007
C       1.08136173     -0.16311797     -0.04311111
C       0.07684622     -0.95234248     -0.45642268
C      -1.24035968     -0.23730762     -0.44532938
O      -2.12665376     -0.71310290      0.58667202
C      -0.83797207      1.25011140     -0.26892102
C       0.61507036      1.24211716      0.24822025
H       3.07306525      0.23002987      0.09683751
H       2.70798200     -1.38517575     -0.16311820
H       0.16701723     -2.00255817     -0.70058841
H      -1.81838244     -0.38033728     -1.35981723
H      -1.58664668     -0.90051686      1.36207428
H      -0.88683282      1.75869681     -1.23282830
H      -1.53178993      1.75274436      0.40302879
H       0.69237086      1.45051281      1.31959312
H       1.23811902      1.98632175     -0.25630372
