15
b3lypvtz=-214486.65992779
N       1.81758284     -1.37048840     -0.23702826
C       1.15037774     -0.25807333      0.39997317
C       1.38169717      1.16514859     -0.19638442
C      -0.13201445      1.48936502     -0.01213917
C      -0.34483817      0.01265993      0.23023051
N      -1.29987731     -0.80639721      0.13577690
O      -2.52036477     -0.14698664     -0.15239495
H       1.62574485     -2.23356754      0.25765815
H       1.47084310     -1.49509369     -1.18195026
H       1.40845147     -0.26614166      1.46223238
H       1.65992115      1.10371291     -1.24811076
H       2.09705070      1.79880714      0.32315367
H      -0.66781633      1.91211293     -0.86034353
H      -0.34589827      2.09655400      0.86902239
H      -3.13915172     -0.88113503     -0.21694884
