18
b3lypvtz=-181900.19781808
C       2.21546565      0.65324693      0.38538351
C       1.38448839     -0.26720768     -0.51126149
C      -0.10034802     -0.26363708     -0.17949874
C      -0.79137677      1.03106012     -0.46804213
N      -1.72436253      1.61455112      0.15903528
C      -0.58858141     -1.14202860      0.93955718
C      -0.89392848     -1.52489921     -0.47987495
H       3.26981437      0.62254304      0.10652059
H       1.88225662      1.68996333      0.31097106
H       2.13691459      0.35705273      1.43300157
H       1.76039028     -1.29044440     -0.43470654
H       1.51290736      0.02551212     -1.55846354
H      -0.43173066      1.52528789     -1.37620418
H      -1.98501895      1.09823514      1.00223065
H      -1.40689295     -0.80024791      1.55962155
H       0.15607395     -1.71440308      1.47582207
H      -0.35982994     -2.35677751     -0.91992101
H      -1.91133450     -1.40564394     -0.82596187
