15
b3lypvtz=-191229.9357781
C       1.94415040     -0.81634177      0.00531344
N       0.54158664     -0.46877398      0.00438674
C      -0.51996310     -1.37742407      0.01693371
C      -1.70665924     -0.76666061      0.01284889
C      -1.46433956      0.72090449     -0.00433296
C       0.06236318      0.83333537     -0.00902977
N       0.83087096      1.84969597     -0.02209022
H       2.51134331      0.11080852     -0.00535605
H       2.21041445     -1.38609200      0.89909996
H       2.20714157     -1.40444716     -0.87749096
H      -0.30372455     -2.43467555      0.02819721
H      -2.67052426     -1.24547945      0.02033655
H      -1.88055996      1.21366034     -0.88711983
H      -1.87666500      1.23340427      0.86899589
H       0.29387718      2.71116363     -0.03044759
