12
b3lypvtz=-226226.90437846
C       2.73062331     -0.26521354      0.29973385
N       1.77604453     -0.21420902     -0.52073243
C       0.47364036     -0.64927879     -0.08226714
C      -0.51185544      0.50057008     -0.00658887
O      -0.21667787      1.66844806      0.02979680
C      -1.99861675      0.12495829      0.06490284
O      -2.40224539     -1.00556690      0.01247893
H       2.62794928     -0.63052852      1.32929822
H       3.71824091      0.06421731     -0.01349031
H       0.07458716     -1.38918252     -0.78010329
H       0.47139634     -1.12956472      0.91150969
H      -2.66125543      1.00505427      0.16794171
