17
b3lypvtz=-194367.14738605
C       2.82452686     -0.66430347      0.08644312
C       1.60108247     -0.19054232      0.29202360
O       0.71898082      0.00680360     -0.72171097
C      -0.61784250      0.45693357     -0.40026919
C      -0.60837110      1.83831635      0.25335324
C      -1.37292360     -0.56716357      0.40173938
C      -2.47366695     -1.17357680     -0.02025607
H       3.17161715     -0.92368035     -0.90376695
H       3.49533177     -0.79364080      0.92161013
H       1.25870564      0.06804249      1.28780751
H      -1.08354883      0.53763020     -1.38229688
H      -1.62740346      2.22070488      0.31792612
H      -0.19970451      1.81256419      1.26415084
H      -0.01217678      2.52972750     -0.34272712
H      -0.98087497     -0.79531194      1.38831140
H      -2.99932093     -1.89169202      0.59520262
H      -2.89239007     -0.97176651     -0.99949879
