15
b3lypvtz=-214449.8129542682
C       2.18560901      1.10870771     -0.31349137
C       1.55409125      0.01628120      0.10739696
C       0.10058915     -0.19964223      0.01041834
N      -0.44042125     -1.40166686     -0.05393240
O       0.53036982     -2.41423680     -0.37065539
C      -0.77759927      0.90339939     -0.03910665
N      -2.17717686      0.40539541     -0.07844791
H      -2.79122216      0.95461399     -0.67371509
H      -2.63111833      0.27560438      0.83193042
H      -2.02675367     -0.57098547     -0.44313554
H       3.25422362      1.22204399     -0.18535634
H       1.65533211      1.90896196     -0.81359869
H       2.11002715     -0.80014341      0.54948386
H       0.08977227     -3.21247708     -0.06711931
H      -0.63572284      1.80414382      0.53515864
