12
b3lypvtz=-202915.61285833
N       4.10891588      1.07298798     -0.65295572
C       3.08920737      0.61452189     -0.35688120
C       1.88179478      0.07768000     -0.00857713
C       0.82183716     -0.40773632      0.30058505
C      -0.47585010     -0.95073841      0.65898113
C      -1.63615897      0.00372996      0.31038517
O      -1.59845484      1.20506973      1.05231870
H      -0.49647654     -1.15441219      1.73271253
H      -0.62328583     -1.90440153      0.14261902
H      -2.57261667     -0.48721662      0.57364434
H      -1.64420136      0.19319428     -0.76771848
H      -0.85471090      1.73732121      0.75108660
