15
b3lypvtz=-191199.3913905
C      -2.50387101      0.58854175     -0.11890838
C      -1.25563646     -0.28381134     -0.13568910
N      -0.06927738      0.51378544      0.12370331
C       1.06003806     -0.08004984      0.15342295
N       1.28515570     -1.43914489     -0.00179396
C       2.25219207      0.68697183      0.41948458
C       3.26341191      1.29719780      0.63066996
H      -2.61385286      1.07338171      0.85135435
H      -2.43254369      1.36966504     -0.87615982
H      -3.39896758     -0.00492591     -0.31419780
H      -1.35189667     -1.08236231      0.61405504
H      -1.17787574     -0.78696928     -1.11273357
H       2.22891884     -1.72879259     -0.19335562
H       0.56994045     -1.98083098     -0.45673738
H       4.14436438      1.85744356      0.82258545
