15
b3lypvtz=-191187.66190184
C       3.03618414     -0.39610921     -0.00007442
N       1.76848353     -0.45091354     -0.00001847
N       1.18465643      0.83240307      0.00040896
C      -0.09432589      0.81533576      0.00043103
C      -1.00968429     -0.33021305     -0.00002087
C      -2.32742285     -0.19275988     -0.74485141
C      -2.32751229     -0.19329549      0.74475231
H       3.57587444      0.55093690      0.00014922
H       3.58813269     -1.32933540     -0.00054065
H      -0.55703785      1.80242094      0.00074215
H      -0.54010453     -1.30013021     -0.00033913
H      -2.68251022     -1.06935782     -1.26759898
H      -2.51799960      0.74145380     -1.25550794
H      -2.68265657     -1.07027091      1.26682748
H      -2.51814614      0.74055007      1.25605972
