17
b3lypvtz=-191987.70054985
C       0.42771600      2.04647944     -0.29251062
C      -0.02873491      0.75380839      0.36803164
C      -1.52996416      0.41753221      0.17810279
N      -1.60371962     -1.04008865     -0.03172629
C      -0.40259189     -1.41618689     -0.22858355
N       0.59313062     -0.45657308     -0.20099702
C       1.95616131     -0.79593418      0.14859525
H       1.49693605      2.21791669     -0.15543522
H       0.21827350      2.02313551     -1.36289540
H      -0.09793115      2.89861371      0.14277407
H       0.21316271      0.79483363      1.44132886
H      -2.14252274      0.71759830      1.02803560
H      -1.93060093      0.92221660     -0.70798498
H      -0.12999910     -2.44307733     -0.45085749
H       2.21495476     -1.76058083     -0.28752393
H       2.64944388     -0.05523757     -0.25073967
H       2.10659367     -0.85517494      1.23601997
