14
b3lypvtz=-226994.67322628
C       0.21026682     -0.04212872     -1.02211889
C       1.51918666     -0.13899753     -0.24455611
O       1.47195029      0.81996219      0.81235287
C      -0.98362805     -0.36415074     -0.16289064
N      -1.52707046     -1.50915134     -0.19695645
C      -1.51463813      0.71969242      0.76683900
O      -2.42559741      0.51280273      1.52762032
H       0.12085248      0.96931649     -1.42875087
H       0.23721889     -0.74640134     -1.85277790
H       1.62982101     -1.15361089      0.15169214
H       2.36082105      0.06224893     -0.91587412
H       2.23038276      0.69343509      1.38914560
H      -2.30487031     -1.52825395      0.47189453
H      -1.02469562      1.70523668      0.70438054
