19
b3lypvtz=-171842.47560034
C       2.14236323      0.39238729     -0.41085701
C       0.73811863      0.12227352      0.06810709
C      -0.21214442      1.30740108      0.20401440
C      -1.63224487      0.70554917      0.21400984
C      -1.52171741     -0.59875904     -0.60631954
C      -0.08424649     -1.05029940     -0.41813535
C       0.47141827     -1.04505667      0.98598963
H       2.13729834      0.92436026     -1.36622791
H       2.69463887      1.00653390      0.30578122
H       2.70155469     -0.53475827     -0.54791612
H      -0.08120309      1.95874238     -0.66586493
H      -0.01199017      1.91460712      1.09055334
H      -1.93958837      0.48134788      1.23622128
H      -2.37705745      1.38990525     -0.19203605
H      -2.25511735     -1.34544739     -0.29305611
H      -1.69937641     -0.39909295     -1.66670925
H       0.33388127     -1.75715876     -1.12359363
H       1.30352227     -1.70731858      1.18563821
H      -0.20549356     -0.92994279      1.82327488
