14
b3lypvtz=-201306.66746036
N      -2.36501453      0.18652584     -0.33026702
C      -1.01399984     -0.05896398     -0.12716053
C      -0.28330729     -1.17743446     -0.24949194
C       1.16200068     -0.83428283      0.00909808
C       1.12866525      0.68100211      0.22242912
N       2.05549521      1.54005236      0.34432928
N      -0.21737033      1.03735741      0.23560438
H      -2.90354021     -0.65457332     -0.47205885
H      -2.78571235      0.76528659      0.38451689
H      -0.66787938     -2.16608266     -0.43508601
H       1.83998827     -1.07715535     -0.81424919
H       1.56423192     -1.32282136      0.90280232
H       2.96731568      1.09337142      0.30063213
H      -0.48077308      1.98771823      0.02890134
