11
b3lypvtz=-233833.18249189
C      -2.69160648      0.34701644      0.10008096
N      -1.43134114      0.43726712      0.11443773
O      -0.87563803     -0.76423393     -0.42882161
C       0.46234356     -0.78913375     -0.46441902
N       1.23624610      0.13684660     -0.06651770
N       2.59000529     -0.27332217     -0.27374951
N       3.41972880      0.55784072      0.08304934
H      -3.23029344      1.20132386      0.48893870
H      -3.22839660     -0.52095409     -0.27299620
H       0.80961614     -1.72805212     -0.88847373
H       2.93933580      1.39540133      0.46577857
