16
b3lypvtz=-181168.84939422
C       2.43232699     -0.00001287      0.65454419
C       1.56385347      0.00001846     -0.60273538
N       0.13653679      0.00000812     -0.32135795
C      -0.63603536      1.11576164     -0.11702174
C      -1.90791017      0.70963897      0.21031985
C      -1.90790130     -0.70965663      0.21030790
C      -0.63602548     -1.11575826     -0.11705546
H       3.48952534     -0.00000118      0.38291852
H       2.23556797      0.88255663      1.26360597
H       2.23557570     -0.88261753      1.26355749
H       1.78346343     -0.87635447     -1.21405646
H       1.78345879      0.87642602     -1.21400811
H      -0.21905376      2.10235657     -0.22819647
H      -2.74411453      1.35750396      0.41292663
H      -2.74410139     -1.35753591      0.41288706
H      -0.21903150     -2.10234650     -0.22824303
