17
b3lypvtz=-191963.7013057
N      -1.80055332     -1.00201814     -0.33299673
C      -0.76271602     -0.36821900      0.48919872
C      -0.55944608      1.11278725      0.11454220
C       0.93967032      1.36133638      0.36642629
N       1.64625613      0.07012899      0.23511138
C       1.31286475     -0.66036483     -0.99479776
C       0.61257734     -0.98005809      0.26988962
H      -1.87918195     -1.98662268     -0.10316955
H      -2.70556805     -0.59114806     -0.13107631
H      -0.98142361     -0.43711275      1.56468183
H      -1.19270398      1.78156495      0.69799092
H      -0.82204254      1.24785744     -0.93489682
H       1.11075869      1.71488427      1.38505771
H       1.37194512      2.09678804     -0.31385969
H       2.09720306     -1.31541223     -1.35214598
H       0.75101718     -0.16038554     -1.77454142
H       0.86144294     -1.88400600      0.81458561
