16
b3lypvtz=-227750.76236577
C      -2.33886888     -0.45728010      0.22574870
N      -1.53571994      0.75404194      0.25224655
C      -0.17311227      0.68792310     -0.03102367
C       0.52181863     -0.40801610     -0.35969391
C       1.94262442     -0.39310646     -0.80313802
O       2.76861522     -0.95090318      0.23639550
O       0.42432339      1.92095671      0.02848222
H      -3.37430421     -0.19398958      0.43642511
H      -2.01447365     -1.21242437      0.95119283
H      -2.29511960     -0.90052328     -0.76881095
H      -1.71738896      1.33032899      1.06376261
H       0.04261809     -1.37123758     -0.26544954
H       2.05347570     -0.99511618     -1.71451273
H       2.25151713      0.62975400     -1.03167323
H       3.66618706     -1.01718389     -0.10424099
H      -0.22219211      2.57677599     -0.25980408
