13
b3lypvtz=-216147.99090851
C      -1.25253118      0.27084701      0.19259461
C      -0.35498646     -0.98284353      0.12275130
C       1.00960176     -0.51369528      0.64918766
C       1.04905728      0.79676792     -0.16330296
O       1.87263639      1.66717688     -0.18454409
C      -0.27322798      0.67550740     -0.93256438
O      -0.20335032     -0.73874775     -1.32275177
H      -2.25039656      0.08728560     -0.19713178
H      -1.27950574      0.85447551      1.11306134
H      -0.70557682     -1.98027965      0.36821241
H       1.81716793     -1.18635677      0.36325051
H       1.05967828     -0.32670153      1.72234618
H      -0.48856658      1.37656417     -1.73110900
