16
b3lypvtz=-204456.93703845
C      -2.15369444      0.62428506      0.48711038
C      -0.66469095      0.45702718      0.48385929
C       0.06013988     -0.44521053     -0.19255906
C      -0.48031200     -1.52180353     -1.09076561
N       1.46130035     -0.52635717     -0.04580085
C       2.16988996      0.48797814     -0.25648489
O       3.50730781      0.44469066     -0.04620740
H      -2.43076735      1.64194368      0.19612059
H      -2.66138032     -0.05834909     -0.19165384
H      -2.56579321      0.46585127      1.48846832
H      -0.12184826      1.12268999      1.14752413
H      -1.56626386     -1.52945910     -1.13384948
H      -0.09536056     -1.40071899     -2.10679982
H      -0.13584572     -2.49611417     -0.73846528
H       1.78017725      1.44863666     -0.60972520
H       3.89714142      1.28510994     -0.30637130
