16
b3lypvtz=-181141.78315986
C       2.78455973     -0.66304930      0.41458690
C       1.64212939     -0.70986342     -0.26542313
C       0.58456468      0.31553929     -0.24042818
C       0.81516311      1.63139276     -0.13421828
N      -0.70441098     -0.21085338     -0.46065364
C      -1.64849945      0.04950885      0.34129542
C      -3.04476098     -0.42927186      0.11516835
H       3.51480862     -1.45669545      0.33366312
H       3.02347275      0.15917242      1.07705256
H       1.41396421     -1.57610384     -0.87695703
H       1.82293179      2.01656990     -0.08588707
H       0.00449028      2.34565587     -0.16095225
H      -1.46864480      0.64403941      1.24629028
H      -3.10706617     -1.01240463     -0.80109699
H      -3.73035904      0.42036099      0.05044564
H      -3.38114115     -1.03846660      0.95851729
