12
b3lypvtz=-223858.17399846
C      -1.87630481     -0.35862666      0.10038284
C      -0.43179925     -0.00678751      0.01857035
N       0.04766469      1.24580165     -0.07567011
N       1.41400808      1.24871491     -0.13356487
C       1.66692333     -0.03963971     -0.06793382
N       0.58425203     -0.85594529      0.02584535
O       2.92291565     -0.51111398     -0.09315747
H      -2.42049667     -0.01870406     -0.78283883
H      -1.97220789     -1.43886900      0.17045294
H      -2.34687553      0.08927453      0.97773874
H      -0.45123530      2.11767383     -0.10606943
H       2.86315570     -1.47177873     -0.03375567
