13
b3lypvtz=-213728.34117812
N       2.54792395      0.41724357     -0.00036060
N       1.73801913     -0.52810271      0.00037249
C       0.37522855     -0.14580361      0.00009047
C      -0.18768607      1.06179044      0.00009835
C      -1.67235425      0.91522389     -0.00002810
O      -1.91853787     -0.49519271     -0.00014500
C      -0.68321428     -1.21261193      0.00000241
H       3.48638974     -0.00378694      0.00010544
H       0.33752546      2.00434663      0.00021525
H      -2.13557452      1.37373232      0.88334576
H      -2.13544016      1.37384717     -0.88341215
H      -0.62127934     -1.85658969      0.88478313
H      -0.62112535     -1.85662141     -0.88474345
