16
b3lypvtz=-204354.79734021
C       1.00936603      0.73219393     -0.19323667
C       0.01930870      1.84571245      0.10291857
C       0.41120783      2.51294089      1.48308323
N       1.27866127      3.43630337      0.59010642
C       0.18082830      3.20316884     -0.42268672
C      -0.41432849      2.63115385     -1.74992988
O      -1.13289788      1.67404496     -0.86018622
H       1.11185205      0.53071834     -1.25767994
H       0.63443117     -0.17906435      0.28027761
H       1.99231300      0.95495718      0.21865264
H      -0.40255343      3.04722897      1.97536542
H       0.98632148      1.91934222      2.19235531
H       1.30405150      4.39450058      0.92802673
H      -0.68289845      3.77537020     -0.06371025
H       0.26030691      2.10449042     -2.42236597
H      -1.11066999      3.26333814     -2.29649028
