15
b3lypvtz=-214493.70180145968
C      -2.72611514     -0.95046835      0.15076193
C      -1.57370450     -0.24838314      0.09147178
C      -0.25517827     -0.77653781      0.07965873
N       0.79914242      0.06994359      0.07292386
C       2.10786728     -0.12771810      0.05257195
N       3.01916038      0.91654097      0.25836292
O      -1.57667733      1.14012294      0.03602503
H      -3.68764229     -0.45799449      0.11044387
H      -2.71290019     -2.02715742      0.21352559
H      -0.06712463     -1.83612507      0.09028798
H       0.50649166      1.04400112      0.10843226
H       2.47154871     -1.14006861     -0.04004275
H       2.69465024      1.67031000      0.84607896
H       3.47898416      1.27674813     -0.56897835
H      -2.47850248      1.44678622      0.16659633
