17
b3lypvtz=-191952.05434081
N      -0.34226018      1.93600536     -0.80850702
C      -0.35627989      0.48963054     -0.70703242
C       0.99054243     -0.21906253     -0.81094651
C       1.80367438     -0.04028921      0.44004074
C       0.68483329     -1.03386648      0.44935482
C      -0.65064211     -0.31410762      0.63694698
N      -1.79264150     -1.21189366      0.66560140
H      -1.25923645      2.33005352     -0.63358106
H       0.29739284      2.34594906     -0.13902021
H      -1.04340078      0.10577025     -1.46567670
H       1.45586407     -0.53957447     -1.73280130
H       2.80264995     -0.45328345      0.39614221
H       1.73258172      0.86273514      1.03768374
H       0.84022094     -2.08732890      0.63416796
H      -0.69630518      0.31962619      1.52824153
H      -2.66228621     -0.69032983      0.67092691
H      -1.80470733     -1.79993392     -0.16144107
