18
b3lypvtz=-181866.61667368
C      -2.18823767      0.06919812      0.63259643
C      -1.21422955      0.69984557     -0.36384950
C       0.19749292      0.19825399     -0.23570908
C       1.45326756      0.66983268     -1.01817964
C       1.92618255     -0.33554178      0.05198689
C       0.74865025     -1.25833328     -0.34178619
N       1.03311023      0.40773996      1.03329926
H      -3.19682362      0.46017420      0.49286215
H      -1.89225022      0.28270657      1.66107565
H      -2.23337659     -1.01497017      0.51348759
H      -1.55286604      0.51123403     -1.38714461
H      -1.19987494      1.78545566     -0.23350258
H       1.74446488      1.70488764     -0.85394375
H       1.53017615      0.36129510     -2.05932391
H       2.94624753     -0.61311210      0.30971119
H       0.76759872     -1.72601906     -1.32892093
H       0.41295736     -1.95537484      0.42755890
H       0.71751050     -0.24727226      1.75306889
