14
b3lypvtz=-201249.65908434
C       3.42112642     -0.00063171     -0.12339189
N       2.34136857     -0.39620137      0.41356498
N       1.20065720      0.10798300     -0.24278452
C       0.12193409     -0.29254938      0.30320439
C      -1.18427477      0.13173054     -0.21674587
C      -2.31048072      0.44056924      0.71368266
N      -2.29409471     -0.82525554     -0.01080426
H       3.43342964      0.65573946     -0.99289639
H       4.35644612     -0.33640608      0.30947539
H       0.13647814     -0.95744119      1.16820343
H      -1.14497400      0.69069522     -1.14323681
H      -2.99703664      1.22145544      0.40903583
H      -2.15888474      0.35741547      1.78264573
H      -2.92169459     -0.79710309     -0.80681240
