18
b3lypvtz=-181915.12156214
C       2.63686634     -0.23333039     -0.50782751
C       1.69997968      0.35407371      0.56034861
C       0.24482275      0.19354280      0.25616112
C      -0.64209917      1.15011520     -0.03186057
N      -1.90967797      0.65883465     -0.39883127
C      -1.93910660     -0.74746401      0.05955737
C      -0.44984963     -1.14803303      0.09201890
H       3.68262462     -0.09633277     -0.22616793
H       2.47896356      0.25026279     -1.47320144
H       2.46834688     -1.30347233     -0.64033757
H       1.92806787     -0.12557662      1.51982482
H       1.92326556      1.41609719      0.69031778
H      -0.46317525      2.21611396     -0.06843035
H      -2.68876343      1.21641536     -0.07828773
H      -2.36438937     -0.81680593      1.06829053
H      -2.53825907     -1.36540099     -0.60822934
H      -0.15240915     -1.62805703     -0.84780045
H      -0.22961064     -1.85554658      0.89448902
