17
b3lypvtz=-191960.9462379
C      -1.44396786      0.67503964     -0.12721371
C      -1.27871274     -0.87491325     -0.26142582
C       0.18871306     -0.97641174      0.19557378
C       0.87137865      0.18225528     -0.60942760
C      -0.01986489      1.00486604      0.35740578
N       0.28723766     -0.05588066      1.37537917
N       2.28904760      0.41667423     -0.44519013
H      -2.19861781      0.95871626      0.60707202
H      -1.69395317      1.16176220     -1.07070665
H      -1.95347919     -1.43229114      0.38940274
H      -1.42880948     -1.23129714     -1.28180270
H       0.63934728     -1.96361317      0.28684564
H       0.61385976      0.24063673     -1.66766836
H       0.22206409      2.03453285      0.61210790
H      -0.45072757     -0.19023991      2.06418797
H       2.82616678     -0.27157968     -0.95973546
H       2.53031783      0.32174344      0.53519541
