14
b3lypvtz=-203688.39324153
C      -3.25566418      0.67653058      0.00488912
C      -2.15011426     -0.04689456      0.18726652
N      -0.87967081      0.50431421      0.08082345
C       0.12771241     -0.26572464      0.27079529
C       1.48350754      0.20717278      0.18267555
C       2.53305075     -0.60443390      0.38059851
O       3.83691374     -0.26404511      0.32148983
H      -3.19002051      1.72909466     -0.23438672
H      -4.23492836      0.22862367      0.09183295
H      -2.22347353     -1.11074381      0.42914073
H      -0.00849857     -1.33002980      0.51104604
H       1.62479399      1.25672651     -0.05285192
H       2.41436914     -1.65469223      0.61634676
H       3.92202267      0.67410163      0.11060195
