15
b3lypvtz=-214522.98101073
C      -0.31125086     -1.13678247      1.45706697
C      -0.26976583     -0.09799748      0.61768477
C      -1.19296654      1.08804601      0.77592885
O      -1.76845632      1.50033046     -0.46551656
N       0.60174056      0.05999947     -0.45998234
C       1.71496820     -0.69802308     -0.75163719
N       2.44989297     -0.63860919     -1.78703591
H      -1.01605834     -1.13120283      2.27471753
H       0.34241922     -1.99212402      1.37789698
H      -0.62518402      1.95404136      1.12229333
H      -1.95897962      0.86141230      1.51964965
H      -2.37972417      0.81597495     -0.75893675
H       0.32612798      0.76570211     -1.12824291
H       1.97750564     -1.40441043      0.03128462
H       2.10973113      0.05374284     -2.45727103
