17
b3lypvtz=-191976.05811558
C      -1.76158750     -1.61637558      0.09188019
C      -0.28246657     -1.30224170     -0.13525298
C       0.12166261      0.09698880      0.34688631
C      -0.56112409      1.18476848     -0.46303855
N      -1.24127101      2.16549825     -0.04544020
C       1.62275406      0.36035168      0.30805436
N       2.54575228     -0.35813406     -0.17059301
H      -2.00356385     -2.61833240     -0.26387934
H      -2.40912364     -0.91154857     -0.43161762
H      -2.01426095     -1.57144646      1.15330951
H       0.32941470     -2.04288816      0.38600715
H      -0.04677194     -1.40013395     -1.19924606
H      -0.18857079      0.22542738      1.39114883
H      -0.42188366      1.09788873     -1.54472818
H      -1.31203182      2.15819243      0.97497397
H       1.91521866      1.31589014      0.75034225
H       2.18374352     -1.22689903     -0.56726964
