17
b3lypvtz=-171052.44272893
C       2.64569040     -0.06274699     -0.13988920
C       1.39403394      0.76198137     -0.11565671
C       0.16012717      0.27668805     -0.09322520
C      -0.42784227     -1.13454363     -0.20322275
C      -1.82356277     -0.49320397     -0.26365496
C      -2.06950784      0.32999756      0.95547355
C      -1.19204412      0.90649400     -0.13447109
H       3.28378882      0.15920464      0.72039809
H       3.24306851      0.14422179     -1.03285843
H       2.42536542     -1.13050125     -0.12461129
H       1.51973756      1.84137975     -0.12954479
H      -0.14054217     -1.62081188     -1.13658058
H      -0.25357373     -1.82851289      0.62272021
H      -2.62223477     -0.80287389     -0.92128561
H      -1.63517656      0.04638279      1.90768191
H      -3.05180294      0.77910032      1.02763190
H      -1.45562467      1.82774425     -0.63510505
