11
b3lypvtz=-264602.00899287
C      -1.71346823      0.42097032     -0.15424252
C      -0.46147811      0.75887041     -0.41859318
O       0.46642470     -0.12435822     -0.90848346
C       1.53768022     -0.44752238     -0.10884221
N       1.65663746     -0.03705757      1.06701204
F      -0.02000813      2.01930236     -0.33968148
O      -2.21736478     -0.84365091     -0.23624856
H      -2.43342165      1.16206210      0.15368542
H       2.20673538     -1.08984562     -0.67874550
H       2.50947968     -0.38483440      1.49439933
H      -1.53121653     -1.43393611     -0.56970133
