13
b3lypvtz=-239493.09332936
C      -3.26513749      0.19176640     -0.00001100
C      -1.93443525     -0.49255405     -0.00000413
C      -0.78090269      0.15422458      0.00001647
O       0.41471696     -0.55857562      0.00000875
C       1.57343977      0.15619427      0.00004191
O       1.67266542      1.34510088     -0.00003131
O       2.61746801     -0.68370155     -0.00002244
H      -3.85234076     -0.09072757     -0.87754036
H      -3.85236493     -0.09075705      0.87749262
H      -3.15959229      1.27668844      0.00000834
H      -1.92090034     -1.57708655     -0.00002056
H      -0.65523066      1.22702762      0.00003250
H       2.29261326     -1.59364579     -0.00000879
