16
b3lypvtz=-225333.83261911786
C       3.07053119      0.18221824      0.15537696
C       1.74756693     -0.46448121      0.39381316
N       0.68174936      0.07622912     -0.03291373
O      -0.45278378     -0.68105365      0.27836235
C      -1.63846635      0.01238888     -0.18644859
N      -2.77073242     -0.84046582     -0.07047992
N      -1.84579798      1.17070806      0.65061702
H       2.94857435      1.11047829     -0.39968438
H       3.72982835     -0.48331017     -0.40788792
H       3.57083778      0.39809158      1.10297627
H       1.70228209     -1.40772404      0.93827035
H      -1.45947391      0.23689749     -1.24471305
H      -2.65276191     -1.68540953     -0.61411028
H      -2.91769682     -1.08441030      0.90226425
H      -1.04603640      1.78805179      0.57770611
H      -2.66762052      1.67179126      0.33543366
