12
b3lypvtz=-252142.91741228
N      -2.70817693     -0.08899258     -0.04286684
C      -1.39140273      0.15816505      0.14609277
N      -0.49795930     -0.70336307     -0.16803467
C       0.85573841     -0.46249998     -0.00223713
O       1.58854555     -1.60914675      0.15910819
C       1.52295313      0.69563442     -0.04629099
F       0.86094735      1.88147663     -0.19292367
H      -3.38633625      0.63570932      0.09962049
H      -2.98363334     -0.91685027     -0.54458369
H      -1.17543564      1.12301969      0.60043583
H       0.96860808     -2.33453695      0.01852226
H       2.59415467      0.79269448      0.00458346
