15
b3lypvtz=-191222.11948871
C       2.78902363     -0.23001579      0.30454419
N       1.80189982     -0.28278580     -0.47763173
C       0.52334001     -0.71750132      0.05193436
C      -0.59335203      0.24327257     -0.41261208
C      -0.42994173      1.66374142      0.14870835
C      -1.89890506     -0.31334955     -0.05270304
N      -2.91988557     -0.75163728      0.24737942
H       2.73150233     -0.48239047      1.37035904
H       3.75864484      0.07542144     -0.08171321
H       0.51855483     -0.79640188      1.14766408
H       0.31634655     -1.70897294     -0.35680254
H      -0.54721512      0.28652147     -1.50372946
H      -0.46886360      1.65683579      1.23858915
H       0.52991350      2.07071474     -0.16450809
H      -1.22013038      2.31828162     -0.21579644
