13
b3lypvtz=-213743.76000834
C       1.64822652     -0.59430815      0.05131858
N       2.22331357      0.37002065      0.63240095
C       0.19996498     -0.55394790     -0.29857662
C      -0.67240087      0.55914063      0.19374113
N      -0.74812208     -0.77452127      0.79621292
C      -1.77399465      0.98048187     -0.70822225
O      -2.59957752      0.21507316     -1.15031535
H       2.15809162     -1.52340261     -0.22779465
H       3.20296190      0.15937756      0.81831814
H      -0.05826593     -0.98585831     -1.26006284
H      -0.19985594      1.32404111      0.79527793
H      -1.57857253     -1.23291704      0.42228237
H      -1.80176908      2.05682028     -0.96144556
