16
b3lypvtz=-202058.50832933
C      -3.21191620      0.03680558     -0.47655823
C      -2.18306388     -0.37252330      0.25223454
C      -0.87963970      0.36064649      0.39466769
N       0.23716790     -0.54787514      0.20938411
C       1.39979487     -0.07744441     -0.01129858
N       1.79217871      1.25650413      0.02420916
N       2.45287382     -0.93640183     -0.32947288
H      -3.17069864      0.95278104     -1.05544322
H      -4.13380601     -0.52773523     -0.52585181
H      -2.24264724     -1.30380999      0.80618425
H      -0.84035466      0.80230451      1.40280413
H      -0.87199748      1.20312363     -0.31491176
H       2.52104327      1.50450876     -0.62688021
H       1.04374136      1.92871574      0.04921870
H       3.31806676     -0.72513896      0.14721772
H       2.17915812     -1.90037502     -0.21006863
