15
b3lypvtz=-216900.85582274
C       2.29841576      0.34423505      0.24162745
C       1.25605116      0.34906788      1.07080617
C      -0.16229056      0.15124604      0.71752249
C      -0.67277838      0.27356141     -0.70722931
O      -1.97733736      0.75148552     -0.91722229
C      -0.62470684     -1.07620762     -0.08469134
O      -1.81635661     -1.71319203      0.23189710
H       3.30548822      0.46976797      0.61424485
H       2.19637127      0.21423168     -0.82878309
H       1.44602126      0.48218126      2.13132035
H      -0.88477205      0.44478390      1.46975980
H       0.03855204      0.53411349     -1.48440138
H      -2.02544172      1.67177768     -0.64027097
H       0.15576109     -1.76354406     -0.38660327
H      -2.53307727     -1.13340818     -0.05997656
