12
b3lypvtz=-200532.11328984
C       0.80483174     -1.70603155     -0.00001529
C       0.96953090     -0.21383035     -0.00001766
N       2.05821358      0.43329625     -0.00006804
C      -0.28608184      0.64828417     -0.00024151
N      -0.27988170      1.91548088      0.00015612
C      -1.56326551     -0.03695665     -0.00010188
N      -2.55336686     -0.62437210     -0.00001723
H       0.23873154     -2.03300582     -0.87474927
H       0.23858068     -2.03289602      0.87465988
H       1.77402931     -2.20127870      0.00010013
H       2.86995964     -0.18144607     -0.00007568
H       0.69896652      2.22484596      0.00010445
