16
b3lypvtz=-181085.49980201
C      -1.38923707      1.45841000      0.00175454
C      -0.41050014      0.32672384      0.07829735
C      -0.62749266     -0.94951582      0.84065678
C      -0.36150211     -0.99790176     -0.63920120
N       1.06575839     -0.78913878     -1.11603959
C       1.97420314     -0.61151503      0.03099804
C       1.07031508      0.49521059     -0.33205757
H      -1.27690149      2.01594456     -0.93150004
H      -2.41591437      1.09220943      0.05081509
H      -1.24823968      2.16107253      0.82813937
H      -1.66752030     -1.13747916      1.07887477
H       0.05319835     -1.32344942      1.59329940
H      -1.04708950     -1.44648206     -1.34325746
H       1.84786499     -1.18658436      0.93698321
H       3.00466272     -0.51784826     -0.28934389
H       1.42839463      1.41034369     -0.78831881
