19
b3lypvtz=-192720.27644499
C       0.59221187      1.71625641      0.09108862
C       0.22022833      0.26070930     -0.17285873
C       1.28051246     -0.71420892      0.34840714
N       2.55926197     -0.53726000     -0.34800627
N      -1.05079522     -0.04120730      0.49136454
C      -1.86440814     -1.09598860     -0.10072625
C      -2.26445841      0.32992576     -0.22288262
H       1.51638918      1.97948924     -0.42417097
H      -0.18858296      2.38792140     -0.26824926
H       0.71847247      1.89003680      1.16169043
H       0.14084437      0.10908995     -1.26123998
H       0.93474675     -1.73157282      0.15556158
H       1.34396374     -0.60172971      1.43901825
H       3.06171507      0.26091334      0.02069637
H       3.15448244     -1.34188929     -0.19757484
H      -2.37136607     -1.75240987      0.59536624
H      -1.49261843     -1.58081696     -0.99860102
H      -3.06869417      0.73040059      0.38160476
H      -2.15751623      0.78764068     -1.20189497
