16
b3lypvtz=-181118.67245657
N       2.05580395      0.11302615     -0.08917659
C       0.82467847     -0.61816440     -0.00504596
C      -0.32361283     -0.29754056     -1.02366098
C      -0.64284777      1.15560834     -0.65364809
C      -0.66380037      1.14114008      0.68138668
C      -0.35401152     -0.31368468      1.02881403
C      -1.25796780     -1.04466378     -0.01516751
H       2.70456052     -0.16657455      0.63546622
H       1.89257859      1.10971202     -0.00302131
H       1.05811912     -1.68425466     -0.00415314
H      -0.25244854     -0.56733823     -2.07421789
H      -0.80494430      1.97344054     -1.33804473
H      -0.84285397      1.94781803      1.37496287
H      -0.30964546     -0.60967681      2.07446124
H      -1.13449148     -2.12892585     -0.02433949
H      -2.31072962     -0.76955163     -0.02827634
