15
b3lypvtz=-191172.02686323
C       2.64589004      0.23173225      0.85156003
C       1.56001297      0.06310161      0.36962394
C       0.23811655     -0.10902581     -0.21214023
C      -0.85816100     -0.77088420      0.67795751
N      -1.81491599      0.26190131      0.21664921
C      -0.69904529      1.15153443     -0.17566529
N       0.33934003     -0.79774149     -1.49683812
H       3.60735233      0.36995934      1.27918794
H      -1.11471355     -1.79569490      0.40678939
H      -0.60514818     -0.72071720      1.74038614
H      -2.43562921      0.62993227      0.92548432
H      -0.39293632      1.86711872      0.59333350
H      -0.83307907      1.66975593     -1.12754620
H       0.94317125     -0.28147337     -2.12647958
H      -0.58025459     -0.84709607     -1.92230257
