21
b3lypvtz=-195909.88943011
C       2.77101120      0.82046061      0.08046780
C       2.20537237     -0.55131803     -0.28345382
C       0.82509629     -0.81767384      0.29741551
O      -0.09472058      0.10808124     -0.25654374
C      -1.40034204      0.10402038      0.32073768
C      -2.21808983     -1.10676228     -0.12672437
C      -2.05609697      1.41622884     -0.08141841
H       2.86519112      0.93160880      1.16353713
H       3.76080371      0.96572224     -0.35509212
H       2.12124103      1.61626292     -0.28186098
H       2.87517428     -1.33998948      0.07145371
H       2.14733321     -0.65522463     -1.37007822
H       0.52341204     -1.84839550      0.07474315
H       0.84651559     -0.71001497      1.39231454
H      -1.29518492      0.07651215      1.41498024
H      -2.32833806     -1.10551348     -1.21272265
H      -3.21323663     -1.08079622      0.32101641
H      -1.74816938     -2.04485507      0.16902683
H      -3.05699464      1.49483987      0.34533082
H      -2.13851506      1.47797371     -1.16794683
H      -1.46283174      2.26240376      0.26460933
