11
b3lypvtz=-213009.51279191
N      -2.26443356      0.11629950      0.00237354
C      -1.00534236      0.11583032      0.00014204
N      -0.24609586      1.26972832     -0.00155167
C       1.04057262      1.18058683      0.00001174
C       1.76582320     -0.05803267      0.00252630
C       1.02130960     -1.17533598      0.00098259
O      -0.31564230     -1.14127633     -0.00131783
H      -2.63249929     -0.83141128      0.00358744
H       1.59112231      2.11796160     -0.00142129
H       2.84304093     -0.09578264      0.00407076
H       1.40772271     -2.18588767      0.00087338
