15
b3lypvtz=-193617.60691033
C       2.39731240      0.01668836     -0.10693706
C       1.06982540      0.05032970      0.03014398
C       0.29194907      1.28358200      0.00795714
C      -1.04289750      1.25530582      0.04806039
C      -1.80235220     -0.03751144      0.02737375
O      -1.00943581     -1.13841714     -0.38040914
C       0.24695390     -1.19061431      0.28443792
H       2.97398822      0.92413884     -0.23502986
H       2.94751017     -0.91539079     -0.08864612
H       0.82673862      2.22556895     -0.02905938
H      -1.62229692      2.17035444      0.08161935
H      -2.24689205     -0.23040427      1.01825173
H      -2.62828848      0.01862605     -0.68462173
H       0.08968764     -1.30702429      1.36753431
H       0.75172953     -2.08302291     -0.08164428
