17
b3lypvtz=-215312.13627876
C       1.23139474      1.34016493      0.53986074
C       1.17783083      0.03961377     -0.25697014
N       2.46798090     -0.64460641     -0.14151668
C      -0.02626708     -0.83563504      0.16180060
C      -1.35952099     -0.20895702     -0.21851293
N      -2.26088946     -0.05651158      0.79305092
O      -1.60441282      0.13957925     -1.35947973
H       0.31117253      1.91414194      0.42729536
H       2.06628952      1.95233789      0.20167967
H       1.37428848      1.13630551      1.60568034
H       1.03676321      0.28507337     -1.31084551
H       2.47985709     -1.49119480     -0.69858096
H       2.64388167     -0.92011604      0.81920180
H       0.03289812     -1.78830828     -0.36991931
H       0.03005742     -1.05330619      1.23262943
H      -3.15895263      0.34301735      0.57846339
H      -2.06745553     -0.34759364      1.73295199
