13
b3lypvtz=-213716.47447196
C      -1.71474398     -1.44595855     -0.18660304
C      -1.42036882     -0.23532068     -0.65861492
C      -0.19293659      0.50721927     -0.38198843
C       0.03541528      1.74288968     -0.84168662
N       0.71448600     -0.13988192      0.51034713
N       1.88579445     -0.07089399      0.16703344
O       2.69054067     -0.66448503      1.14035017
H      -2.64772410     -1.92883428     -0.44208316
H      -1.04067927     -1.97724671      0.47078905
H      -2.12147673      0.27494712     -1.30935021
H       0.93601551      2.28083235     -0.58743251
H      -0.69659750      2.23976555     -1.46231786
H       3.57207508     -0.58323281      0.75515695
