12
b3lypvtz=-226224.45677776
C      -1.84754862     -0.23909731      0.03295158
C      -0.37407515     -0.38285485     -0.02781110
C       0.65002495      0.51055235      0.03197829
C       1.82110023     -0.28116955     -0.08535992
N       1.53573404     -1.55148300     -0.20663600
O       0.14856386     -1.62416317     -0.17119779
O       0.51550054      1.86090347      0.17448080
H      -2.10588603      0.81192419      0.14880097
H      -2.31839770     -0.61450844     -0.87775426
H      -2.26344016     -0.79438715      0.87601435
H       2.85475876      0.03133289     -0.08532378
H       1.38366530      2.27295058      0.18985686
