14
b3lypvtz=-257896.85280722
F      -1.77615003      1.10198540      0.02486623
C      -1.00450980     -0.00000094      0.29361251
F      -1.77614837     -1.10198828      0.02486498
C       0.21745799      0.00000045     -0.58278303
C       1.27186273      1.05462004     -0.16854105
N       1.97450329      0.00000099      0.60029846
C       1.27186417     -1.05461815     -0.16854226
H      -0.78129229     -0.00000143      1.36222390
H      -0.10312590      0.00000083     -1.62270978
H       1.82285577      1.43054978     -1.03672542
H       0.92707934      1.90302198      0.42501855
H       2.98457942      0.00000171      0.53734460
H       1.82285773     -1.43054613     -1.03672706
H       0.92708194     -1.90302124      0.42501636
