19
b3lypvtz=-192748.45503402
N       2.44174600     -0.09830818     -0.03925555
C       1.02486480     -0.01002472      0.32757073
C       0.30175675      1.25099941     -0.17468010
C      -1.18522065      1.22259767      0.17945410
N      -1.79226678      0.01079335     -0.36471317
C      -1.19829683     -1.20246338      0.19282179
C       0.28791258     -1.26114496     -0.15623302
H       2.53879745     -0.08413705     -1.04970059
H       2.94799825      0.70881075      0.30849041
H       0.98899370     -0.00481335      1.42326491
H       0.40614897      1.30929754     -1.26263051
H       0.77074184      2.14349466      0.24954975
H      -1.69332476      2.09013741     -0.24556418
H      -1.29239256      1.28846938      1.27707713
H      -2.79213705      0.01692581     -0.21036693
H      -1.30842710     -1.25447311      1.29065262
H      -1.71705439     -2.06768777     -0.22347294
H       0.75004363     -2.14753215      0.28156508
H       0.39171613     -1.33846830     -1.24348954
