15
b3lypvtz=-191184.37218342
N       2.22514269      0.21275714     -0.29401624
C       0.89648069     -0.12506354     -0.15367550
C       0.09247053     -1.02698921     -0.74095343
C      -1.28157472     -0.61554889     -0.17705071
C      -1.23402897      0.93765596     -0.33375130
C      -0.09307845      0.69354626      0.70484170
N      -1.00234743     -0.35000420      1.28545232
H       2.80438100     -0.46452415     -0.76557329
H       2.66995061      0.59019089      0.52852736
H       0.30057643     -1.78540916     -1.47743003
H      -2.15645875     -1.20911376     -0.42895172
H      -0.95708724      1.33703670     -1.30580242
H      -2.09164332      1.45160243      0.09796945
H       0.29986715      1.46981422      1.36021771
H      -0.47265023     -1.11595069      1.70009608
