14
b3lypvtz=-224568.74418429
C      -1.99207030     -0.80774466      0.18701147
N      -1.54818360      0.46123359     -0.37058251
C      -0.27126422      0.94488189     -0.23782641
N       0.01285298      2.17355606     -0.27094761
O       0.60515527     -0.13678729     -0.11316376
N       1.93548743      0.26883480      0.02328891
C       2.70689087     -0.73025762      0.11157145
H      -1.90568739     -0.85585658      1.27803897
H      -1.42356846     -1.63141230     -0.23878514
H      -3.03751980     -0.94775106     -0.08230996
H      -2.21631519      1.21439257     -0.35132356
H       1.01573523      2.31792563     -0.23789767
H       2.35788561     -1.75877315      0.08043792
H       3.76060159     -0.51224186      0.22248792
