16
b3lypvtz=-204447.56516564
C      -2.22914806     -0.75887848     -0.34651104
C      -1.18985263      0.04327349     -0.14803690
C      -1.20574086      1.32523789      0.62217685
O       0.00334840     -0.26638928     -0.79751365
C       1.19360131     -0.15259204     -0.11652722
C       2.20352241      0.53952052     -0.64330311
N       1.18685981     -0.81990008      1.10573637
H      -3.19902564     -0.50784696      0.05497923
H      -2.13113205     -1.65934472     -0.93549772
H      -2.20693371      1.52554650      0.99782991
H      -0.89538175      2.15528306     -0.01605687
H      -0.51761521      1.28364863      1.46726819
H       2.05357606      1.11126545     -1.54423158
H       3.18214448      0.52906029     -0.18764674
H       2.09478407     -0.89378949      1.53801211
H       0.70497937     -1.70799377      1.08059516
