12
b3lypvtz=-200504.9798617679
C      -1.31679893     -1.02150346      0.47687369
C      -0.79388350      0.17917025      0.70730010
C       0.21143635      0.88212123     -0.12730652
N       0.20288192      2.15550266     -0.29372686
C       1.25545191      0.14421245     -0.82139690
N       1.55024266     -1.09890800     -0.57291431
N       1.82102775     -2.17882962     -0.37980309
H      -2.09360880     -1.41926554      1.11606393
H      -1.01665325     -1.64071574     -0.35759489
H      -1.16303137      0.76716698      1.54157129
H      -0.57027562      2.57726574      0.21897429
H       1.91321090      0.65378303     -1.50804072
