16
b3lypvtz=-204465.39332475
C      -1.75708388     -0.89566888     -0.59009481
C      -0.99547385      0.36176254     -0.19364898
O      -1.04601819      0.59339891      1.21014963
C       0.49661821      0.32041635     -0.58477042
C       1.23177183      1.62057650     -0.21981826
C       1.17163516     -0.84221704      0.00135179
N       1.71302945     -1.75558933      0.44474743
H      -1.34728688     -1.77130675     -0.08672150
H      -2.81042819     -0.80133935     -0.31718985
H      -1.71141432     -1.05807567     -1.66854153
H      -1.42083521      1.22305146     -0.72603952
H      -1.95506251      0.50101252      1.50951176
H       0.53399466      0.18661738     -1.66993305
H       1.18993463      1.79237257      0.85295612
H       0.75824455      2.46282652     -0.72530701
H       2.27489554      1.57491525     -0.52874981
