17
b3lypvtz=-191981.6780465
C       2.29007263      0.13873221     -0.95191065
C       1.71386794     -0.75064489      0.14860649
C       0.71550525     -0.02389068      1.07350545
C      -0.55961506      0.37536663      0.37232568
N      -0.89898095      1.55244604      0.03494270
C      -1.51376739     -0.74100151      0.03046386
N      -2.60028878     -0.60514128     -0.60111708
H       2.99465142     -0.41755864     -1.57119728
H       2.82422318      0.99229205     -0.52823486
H       1.50926217      0.52779925     -1.60707286
H       1.22906958     -1.62245028     -0.29851863
H       2.52498883     -1.14013128      0.76777536
H       1.18815557      0.86544137      1.49731803
H       0.46260155     -0.68456698      1.90837413
H      -0.19769118      2.23921550      0.30974405
H      -1.23278391     -1.73880869      0.37132546
H      -2.71668384      0.38529318     -0.84437288
