14
b3lypvtz=-203698.04815878
C      -2.02042937      0.35047650     -0.86312474
C      -1.02632656     -0.00325010      0.18955777
C       0.30589818      0.08472223      0.09790140
C       1.24882072     -0.29447939      1.22273183
O       2.09654993     -1.38419030      0.89265488
C       0.94555766      0.53731642     -1.09983763
N       1.52530853      0.88746086     -2.03412399
H      -2.70205227      1.12410389     -0.49934560
H      -1.54770617      0.70677343     -1.77664233
H      -2.63874085     -0.51759977     -1.10689516
H      -1.42830184     -0.36843220      1.12953628
H       0.65984587     -0.61312088      2.08172084
H       1.83597084      0.58123627      1.52155012
H       2.74570532     -1.09111697      0.24421632
