13
b3lypvtz=-213742.59669362
O       2.54130612     -0.19463723      0.64789657
N       1.58900041      0.85908641      0.72844625
C       0.46161642      0.45499710      0.27943834
C      -0.74348742      1.25030724      0.18275063
C      -1.72484965      0.45135967     -0.28660544
N      -1.32866936     -0.86325942     -0.44977838
C       0.12191909     -0.93482196     -0.22950229
H       3.32813484      0.21396543      1.02009874
H      -0.83227230      2.28434578      0.46591921
H      -2.74830266      0.72378728     -0.49806725
H      -1.72174692     -1.39156593     -1.21159542
H       0.66994174     -1.15341104     -1.15042188
H       0.38750969     -1.69995334      0.50152093
