17
b3lypvtz=-194373.92704861
C      -1.64991454     -1.72749408      0.31242130
C      -0.90206736     -0.81219104     -0.29082671
C      -0.46725960      0.49591486      0.31083403
C      -1.00064953      1.67110775     -0.53287877
C       1.03249575      0.60909598      0.46993498
C       1.89131486     -0.40140929      0.41424622
O       3.23915102     -0.21439571      0.58500217
H      -1.94449976     -2.64065659     -0.18838893
H      -1.99874202     -1.59457249      1.33009811
H      -0.57115812     -0.98616590     -1.31204093
H      -0.92594182      0.57533748      1.30397532
H      -0.59967526      1.63369378     -1.54771764
H      -2.08914138      1.64363145     -0.59324194
H      -0.70594037      2.62516695     -0.09233979
H       1.42798957      1.60261673      0.65587794
H       1.57287923     -1.42316120      0.24122448
H       3.69125936     -1.05651871      0.49552017
