12
b3lypvtz=-200545.57027444
C      -2.51873790     -0.29264492     -0.00003140
N      -1.62332267      0.60850622      0.00004612
C      -0.28226957      0.23896691      0.00002395
C       0.76310939      1.13011454      0.00001701
N       1.89818901      0.35899344      0.00001543
H       2.84546175      0.69458417      0.00009570
C       1.49998304     -0.94718925     -0.00002419
N       0.19865532     -1.05550510     -0.00005490
H      -2.29399314     -1.36011034      0.00028904
H      -3.56065898      0.01483903      0.00031793
H       0.77905668      2.20438421     -0.00003165
H       2.20456605     -1.76316892     -0.00005905
