17
b3lypvtz=-191980.11466312
C      -2.39638269     -0.79610610     -0.25215142
C      -1.27042256     -0.11275857     -0.00925715
C      -1.29530406      1.25414344      0.61329792
N      -0.02331865     -0.68955071     -0.30324324
C       1.25875623     -0.17320682     -0.06531886
C       2.20150551     -0.88283998      0.57478247
N       1.45768620      1.10925500     -0.58015198
H      -2.38247467     -1.78168555     -0.69987138
H      -3.35772172     -0.37829409      0.00120298
H      -0.92369033      2.02130434     -0.06439612
H      -0.66078972      1.28951669      1.50111601
H      -2.31515115      1.50159778      0.89925021
H      -0.04035324     -1.69389212     -0.35962381
H       3.23183127     -0.55853880      0.58532971
H       1.95134944     -1.79233467      1.09875429
H       2.40002235      1.44989634     -0.46821809
H       1.11926278      1.22635782     -1.52515553
