12
b3lypvtz=-223860.917313
C       1.95010300     -0.70017359     -0.00001467
N       0.53653385     -0.41330888      0.00002038
N      -0.39910999     -1.42289115     -0.00000500
C      -1.53899744     -0.81408581     -0.00001683
N      -1.39088261      0.54694013     -0.00002106
H      -2.10859530      1.24910053     -0.00000843
C      -0.02482000      0.84564732      0.00002142
O       0.51313450      1.93520895     -0.00004030
H       2.22545205     -1.26887844      0.88834408
H       2.47296877      0.25327743     -0.00001326
H       2.22540706     -1.26884770     -0.88840750
H      -2.49123887     -1.31617278     -0.00005082
