10
b3lypvtz=-223081.20005101
N      -3.03373476     -0.17788141     -1.40067933
C      -2.03103866     -0.08213632     -0.84307833
C      -0.80475124      0.05288786     -0.06951465
N      -0.81549271      0.29725220      1.17838994
N       0.34274994     -0.11665326     -0.85229012
C       1.47806657     -0.02052727     -0.28371465
O       2.60562364     -0.16984338     -0.96493829
H      -1.76149579      0.38116928      1.54069087
H       1.64706488      0.18423006      0.77006889
H       2.37300814     -0.34859777     -1.89093432
