16
b3lypvtz=-204442.01723515
C      -0.33102678      1.94274397      0.19763943
C      -0.05630284      0.45985333      0.01812215
C      -1.32735562     -0.28032346     -0.35874195
O      -1.80106557     -1.22364042      0.22055935
C       0.78257024     -0.29492581      1.07419785
C       1.57384246     -0.89796259     -0.10663908
N       0.99987524      0.14548720     -0.99913559
H      -0.82183883      2.36070588     -0.68491870
H      -0.97510074      2.12080377      1.06176230
H       0.60991410      2.47314136      0.34099246
H      -1.79628775      0.10116174     -1.29452278
H       1.37627639      0.37847321      1.68872174
H       0.22893448     -0.98815558      1.70073267
H       1.26020823     -1.91780618     -0.34356676
H       2.66171913     -0.86392171     -0.04723967
H       0.66770486     -0.17004470     -1.90568342
