17
b3lypvtz=-171089.1700615
C      -0.93901012      1.89821739     -0.00002794
C      -0.13301166      0.83411632      0.00000394
C       1.38884021      0.86027351      0.00002802
C       1.82456102     -0.62668026     -0.00001849
C       0.52253794     -1.37682557     -0.00000694
C      -0.55106728     -0.57440467      0.00000943
C      -1.98391475     -1.00104173      0.00001563
H      -0.54699861      2.90714336     -0.00003642
H      -2.01592142      1.79556863     -0.00004868
H       1.76720375      1.38955398      0.87548365
H       1.76724516      1.38962655     -0.87536572
H       2.43301362     -0.87864208     -0.87364323
H       2.43306114     -0.87868769      0.87355940
H       0.47512454     -2.45857593     -0.00001579
H      -2.50891608     -0.61483019      0.87750981
H      -2.50891713     -0.61484769     -0.87748574
H      -2.07401034     -2.08677591      0.00002609
