16
b3lypvtz=-204417.05002626
C      -1.87436866     -0.23468757     -0.26505063
C      -1.36374434      1.14158208      0.22842107
N       0.06019941      0.81826442     -0.14471109
C      -0.41529071     -0.57270943     -0.54245006
C       0.42755204     -0.37304943      0.64802989
C       1.90285946     -0.66843745      0.58891675
O       2.65457396      0.29390317      1.31451561
H      -2.39445987     -0.87644869      0.44703508
H      -2.47343562     -0.15515765     -1.16960542
H      -1.72177004      1.98192847     -0.36186691
H      -1.48938075      1.36863281      1.28867281
H      -0.04371706     -1.06297467     -1.43384512
H      -0.02115718     -0.46976484      1.63385824
H       2.11639908     -1.63555395      1.04659925
H       2.22550215     -0.71103715     -0.45815019
H       2.41023813      1.15550988      0.95656663
