8
b3lypvtz=-206006.67759527
O       0.80322517      1.06505094     -1.07133862
C       0.45534166      0.36875329     -0.15400928
O       1.14451313      0.21527725      0.98628234
C      -0.83424678     -0.42636610     -0.19924341
F      -1.06744443     -1.16351370      0.93984102
H       1.94127739      0.76244689      0.90704262
H      -1.65679475      0.27545134     -0.34926121
H      -0.78577139     -1.09709990     -1.05921347
