10
b3lypvtz=-183452.93576175
C       0.72073203      1.35262128      0.00001076
C       0.60157282     -0.14692845     -0.00006877
O       1.54780956     -0.89826189      0.00032914
C      -0.79843416     -0.74936967     -0.00011296
F      -1.79519700      0.21813968     -0.00061534
H       1.77046154      1.63381835      0.00085029
H       0.21412258      1.76983801      0.87296804
H       0.21559542      1.76992929     -0.87376007
H      -0.91519361     -1.37371907     -0.88812886
H      -0.91539919     -1.37298452      0.88839876
