8
b3lypvtz=-151969.58743443
C       0.03526017      0.76185595     -0.22359259
C       1.07411704     -0.12504254     -0.33431827
N       0.57220112     -1.39071204     -0.29603891
N      -0.71765051     -1.33580821     -0.16769414
N      -1.05336224     -0.03382914     -0.12259559
H      -0.01729518      1.83508872     -0.20898928
H       2.12764624      0.06398645     -0.43684509
H      -2.02091664      0.22446082     -0.02411664
