11
b3lypvtz=-142663.59834229
C       2.28458881     -0.13608839     -0.00000171
C       0.96944159     -0.34998550      0.00000131
N      -0.00173036      0.63854768      0.00000132
C      -1.37392518      0.45143918     -0.00000042
N      -2.05983219     -0.61609944     -0.00000126
H       2.70878374      0.86001463     -0.00000531
H       2.96928131     -0.96941661     -0.00000044
H       0.57832398     -1.35806510      0.00000482
H       0.31726569      1.59363681     -0.00000147
H      -1.90296547      1.40359633     -0.00000041
H      -1.49078793     -1.46045859     -0.00000143
