11
b3lypvtz=-121696.0519900162
C       1.21662168     -0.05605264     -0.17800783
C       0.05652132      0.95684414     -0.19130315
C      -0.75470569      0.17396980      0.82960551
C       0.02251627     -0.96044038      0.17990733
C      -0.97272921     -0.09439028     -0.57684268
H       1.96477675      0.08260958      0.60639125
H       1.69327631     -0.25122025     -1.14185480
H       0.01395499      2.01878910     -0.38707442
H      -1.36468185      0.35229371      1.69479912
H      -0.05769110     -2.01670418      0.39374317
H      -1.81785947     -0.20569860     -1.22936350
