13
b3lypvtz=-169128.89018515
C       1.68265540      0.19177146     -0.39880014
O       0.83345063     -0.07778468      0.71028068
C      -0.55417262     -0.12246879      0.44191881
C      -1.12005322      1.14214599     -0.17814524
O      -0.88778798     -1.19397114     -0.42037659
H       2.69743498     -0.01507837     -0.06459080
H       1.44823283     -0.45062151     -1.25032290
H       1.62472120      1.23832562     -0.71179301
H      -0.98957783     -0.28323355      1.43273481
H      -0.76042807      1.27346892     -1.19813821
H      -2.20672076      1.07497924     -0.21136834
H      -0.83799506      2.00998462      0.41725261
H      -0.60563951     -2.01120780      0.00450332
