15
b3lypvtz=-146582.97241585
C      -1.91461638     -0.66125496     -0.21768286
C      -1.08845247      0.33860640      0.58943695
C       0.08112609      0.92843602     -0.19790290
O       1.01932016     -0.03629236     -0.65451951
C       1.90994737     -0.49879143      0.33826237
H      -1.29506219     -1.48818157     -0.56501501
H      -2.72955324     -1.07447691      0.37832677
H      -2.35295081     -0.18607837     -1.09837688
H      -1.71900978      1.17135312      0.91596493
H      -0.71833766     -0.13347799      1.50357472
H      -0.29331877      1.41643606     -1.10065870
H       0.59551368      1.68985632      0.40397759
H       1.40423215     -1.06412748      1.12923173
H       2.45655246      0.33241092      0.80237039
H       2.62372841     -1.15762777     -0.15375158
