13
b3lypvtz=-143345.66023306476
C      -1.54831895     -0.66003324      0.44272615
C      -0.59708874     -0.01094105     -0.48038776
N      -0.79739050      0.50373833      0.94625087
C       0.72021193     -0.61821557     -0.79555823
N       1.74272485      0.42645083     -0.29837972
H       1.82416769      1.18413744     -0.97012357
H       2.66017708      0.00042218     -0.21581638
H       1.45787437      0.83102204      0.61242564
H      -2.61222866     -0.54007388      0.26874545
H      -1.27413715     -1.60840463      0.88848624
H      -1.05755624      0.63286870     -1.22839828
H      -1.41259401      1.31312659      0.94116450
H       0.89415832     -1.45409774     -0.11113491
