11
b3lypvtz=-142656.15749182506
C      -0.47767958     -0.67502211      0.60637998
C      -1.42316262      0.25079429     -0.21563681
N      -0.23085355      1.02454258     -0.68198330
C       0.54207557      0.24916083      0.00399372
N       1.89090312      0.28355133      0.12678374
H      -0.42742942     -1.71749575      0.28925536
H      -0.58332103     -0.63146823      1.69115417
H      -2.12129012      0.84680398      0.37480352
H      -1.96517926     -0.23838749     -1.02689182
H       2.37928551     -0.38027996      0.69486820
H       2.41665137      0.98780051     -0.36025114
