13
b3lypvtz=-143399.63766929
N       1.89172908      0.50652631      0.35913663
C       0.88788880     -0.25286277     -0.37188252
N      -0.27443572     -0.43488400      0.48185905
C      -1.54693733     -0.62514785     -0.20314340
C      -1.23901581      0.65511700      0.48765572
H       2.19958693     -0.02192408      1.16739312
H       2.70196351      0.67753371     -0.22374202
H       1.21131523     -1.25669951     -0.68029410
H       0.64395834      0.31162330     -1.28618303
H      -2.22147317     -1.34518164      0.24302411
H      -1.54495854     -0.61529613     -1.28911442
H      -1.02063729      1.51963234     -0.13054691
H      -1.68898402      0.88156332      1.44583777
