10
b3lypvtz=-152738.17023734
N      -1.99025754     -0.15208324     -0.09692206
C      -0.83703104     -0.61578812      0.12700899
C       0.46953466      0.12873840      0.02744854
N       0.61250813      1.39576183      0.03493940
N       1.56370035     -0.70135901     -0.02386806
H      -1.94447504      0.83352633     -0.37309446
H      -0.76066340     -1.66642315      0.41597942
H      -0.27667570      1.86990550      0.17280531
H       1.44565474     -1.63211509     -0.38630484
H       2.44016686     -0.25454044     -0.24118725
