9
b3lypvtz=-190913.53492155
O      -0.53257406     -1.71798727      0.56213907
C      -0.79540806     -0.54277986      0.51396831
C      -0.03730443      0.41872908     -0.40505508
O       0.88713663     -0.27709406     -1.17003830
O       0.55640793      1.41302999      0.41066848
H      -1.55377893     -0.08153446      1.16972703
H      -0.73865142      0.96109881     -1.04670063
H       0.87610548     -1.19627527     -0.85628618
H       1.33806686      1.02281305      0.82157731
