13
b3lypvtz=-143423.48845098
C       1.46746871     -0.83842585     -0.31290927
C       0.44372943      0.01751327      0.43962659
N       0.44671461      1.38016913     -0.08714119
C      -0.93939286     -0.59740593      0.30638621
N      -1.92561544     -0.13104529     -0.33004777
H       2.48064895     -0.46970192     -0.14085081
H       1.42940976     -1.87604992      0.01948196
H       1.26368014     -0.81074489     -1.38395287
H       0.69935903     -0.02541420      1.50997139
H      -0.00391186      2.02188384      0.55421023
H       1.39211041      1.71093310     -0.23007849
H      -1.06244962     -1.55400466      0.82184296
H      -1.65022627      0.75368632     -0.76864895
