11
b3lypvtz=-142610.80188516402
C      -1.70903611      0.29373502      0.23354383
C      -0.66453579     -0.31177295     -0.30352236
N       0.70972210      0.11358406     -0.11534039
C       1.61808600     -0.79332013     -0.43682677
N       1.01776671      1.28622262      0.37079261
H      -2.70128159     -0.08652765      0.04132554
H      -1.62121788      1.15250618      0.88329060
H      -0.75563019     -1.18675907     -0.92834327
H       2.65332316     -0.53453512     -0.30181967
H       1.29280069     -1.76140071     -0.76774001
H       0.16000290      1.82826776      0.40841810
