11
b3lypvtz=-168375.39309905
C      -0.79033176      1.34231855      0.04111110
C      -0.62201954     -0.15641966      0.03170802
O      -1.55505335     -0.92263692     -0.03946766
C       0.79653894     -0.71981887      0.14826836
O       1.84546494      0.22420389      0.00585554
H      -0.31827182      1.78130096     -0.84115106
H      -1.84880236      1.58882753      0.05128661
H      -0.28327546      1.77771054      0.90396084
H       0.88339690     -1.55720483     -0.54997073
H       0.88449585     -1.13621570      1.15509053
H       1.99871565      0.38578852     -0.92911355
