10
b3lypvtz=-152738.52091474
N      -2.04564888     -0.58624739      0.00000064
C      -1.34045543      0.46441358      0.00000888
N       0.04488880      0.62497602     -0.00000570
C       1.00269818     -0.37533888     -0.00000121
N       2.26381360     -0.24277876      0.00000643
H      -1.50127185     -1.44616284     -0.00002248
H      -1.84778179      1.42829829      0.00003268
H       0.38321786      1.57515042      0.00001642
H       0.58668751     -1.37891847     -0.00000095
H       2.55198401      0.73737403      0.00000629
