15
b3lypvtz=-146590.92742248
C       2.51551892     -0.29489590     -0.00000036
C       1.22747589      0.52778139     -0.00000030
C      -0.03321725     -0.33750504      0.00000236
C      -1.31387229      0.47764357      0.00000236
O      -2.41852698     -0.42507385      0.00000242
H       3.39811813      0.34673739     -0.00000198
H       2.57205456     -0.93795673     -0.88089767
H       2.57205613     -0.93795445      0.88089851
H       1.21756697      1.18571696      0.87469984
H       1.21756513      1.18571419     -0.87470249
H      -0.03794221     -0.99152487     -0.87651502
H      -0.03794040     -0.99152224      0.87652169
H      -1.34282374      1.12607208     -0.88527114
H      -1.34282362      1.12607216      0.88527576
H      -3.23360625      0.08417035      0.00000902
