12
b3lypvtz=-153457.9717464199
C       0.77037386     -0.13471059      0.53904997
N       0.12429086      0.38996103     -0.55280970
C      -1.14859949      0.33649968     -0.87676794
N      -1.99977012     -0.39019513     -0.04770534
N       2.18393766      0.04402389      0.49015465
H       0.32166388     -1.03113893      0.94922119
H       0.72871766      0.96287872     -1.12846061
H      -1.51054458      0.88262356     -1.72925354
H      -1.76258715     -0.25773254      0.93775108
H      -2.97541610     -0.18835283     -0.20792343
H       2.70681775     -0.80316110      0.28939997
H       2.56111577      0.44607520      1.33734368
