9
b3lypvtz=-193524.65294678
C      -1.01322307      0.02162723     -0.17656829
C       0.46084803     -0.10794243      0.11341274
N       1.36040359      0.76026089     -0.02827012
O       0.73157018     -1.34951722      0.57620874
F      -1.29508605      1.29004739     -0.65125793
H      -1.58976016     -0.15080561      0.73426364
H      -1.31176350     -0.71133753     -0.92848064
H       0.97272847      1.62941839     -0.38533766
H       1.68428250     -1.38175113      0.74602954
