9
b3lypvtz=-141860.7019471
C       2.02210413      0.46886984     -0.12148081
C       1.09272682     -0.25392391     -0.37591703
C      -0.03423408     -1.06827303     -0.67324085
N      -1.26285966     -0.70350795     -0.53354444
N      -1.53460343      0.50644120     -0.01715062
H       2.85649847      1.08535085      0.10400601
H       0.12896465     -2.06990165     -1.04811689
H      -2.46211635      0.82151785     -0.24411026
H      -0.80658055      1.21332680     -0.05154512
