9
b3lypvtz=-165180.24189101878
C      -0.71416422     -0.38774844     -0.22814178
C       0.57850199      0.33313950     -0.45762693
N       1.63769274      0.01657796      0.21861647
N       2.55921138     -0.28246207      0.80766217
O      -1.71620812      0.40120245      0.41371429
H      -1.15685041     -0.66672801     -1.18463688
H      -0.51671507     -1.31092417      0.32768547
H       0.68251176      1.16315868     -1.13880848
H      -1.35398003      0.73378410      1.24153568
