12
b3lypvtz=-155912.21869709
C       1.34827584      0.02001298      0.24428668
N      -0.07041014      0.14394810     -0.01040807
C      -0.84078051     -1.07524738     -0.16955569
C      -0.67633380      1.35804759     -0.10026742
O      -1.85686258      1.54935337     -0.31058362
H       1.53596433     -0.53130808      1.17024253
H       1.85080957     -0.50647723     -0.57230222
H       1.79145688      1.01047639      0.33839683
H      -1.87636334     -0.80292023     -0.35221242
H      -0.78064555     -1.69042336      0.73223953
H      -0.46541178     -1.66180769     -1.01239964
H       0.04030109      2.18624555      0.04276350
