9
b3lypvtz=-144301.12020167
C      -2.36472438     -0.00944240      0.00001182
C      -1.08644319     -0.39143409      0.00000208
C       0.04947687      0.51695653      0.00002475
C       1.30511475      0.11674775     -0.00000578
O       2.41296824     -0.22741389     -0.00003302
H      -2.65091742      1.03472996      0.00002601
H      -3.16102378     -0.73937426      0.00000683
H      -0.85234647     -1.45017150     -0.00002398
H      -0.09911163      1.58998889      0.00003429
