15
b3lypvtz=-123277.39289483
C      -2.10576389      0.29906355      0.03691719
C      -0.89869879     -0.60814293     -0.21035630
C       0.36160710     -0.12182839      0.46944528
C       1.24083191      0.90326294     -0.19603732
C       1.71680887     -0.51964025     -0.04614363
H      -2.99712227     -0.08027845     -0.46579513
H      -1.91887134      1.31069365     -0.32820228
H      -2.33187945      0.36988442      1.10313812
H      -0.71422531     -0.68815918     -1.28618902
H      -1.12791379     -1.62154379      0.13422286
H       0.27941416     -0.03497254      1.54774972
H       1.70490369      1.66578662      0.41419494
H       0.96032887      1.23795629     -1.18650210
H       1.75552349     -1.13442959     -0.93597743
H       2.50285275     -0.72402437      0.66776212
