10
b3lypvtz=-178474.14007269
C      -1.93277940      0.01398860      0.00001931
N      -0.62426114     -0.60692132     -0.00003375
C       0.52341068      0.10930057     -0.00002050
O       0.62118549      1.31704964     -0.00001624
O       1.60534451     -0.72471733     -0.00002581
H      -2.50337465     -0.26615463     -0.88760298
H      -2.50313343     -0.26571623      0.88793873
H      -1.79017652      1.09127432     -0.00026126
H      -0.54288295     -1.60845061     -0.00000244
H       2.37865842     -0.14682002     -0.00003405
