11
b3lypvtz=-170969.07868519
N      -2.29595985     -0.25179540     -0.23088152
C      -1.09191306     -0.38994857      0.13522542
C      -0.07709808      0.69481289      0.38811728
C       1.22717342      0.48289228     -0.36630710
F       1.85912304     -0.67230514      0.09562465
H      -2.53196492      0.73743731     -0.34706119
H      -0.73118462     -1.40836675      0.29159129
H      -0.49280447      1.66817284      0.11269645
H       0.15539019      0.72638455      1.45753928
H       1.91015303      1.31892173     -0.20667670
H       1.05755632      0.35772526     -1.43768188
