10
b3lypvtz=-178436.61410253
N       1.80988336     -0.74386717      0.65783147
C       1.47547774      0.19226058     -0.11930796
O       0.25491815      0.58061183     -0.56145104
C      -0.89646856     -0.12200861     -0.07380514
O      -2.02725510      0.43185810     -0.64490715
H       1.02900085     -1.29544513      1.00437990
H       2.23134403      0.84145833     -0.55282583
H      -0.85626387     -1.16504032     -0.39162413
H      -0.89986764     -0.06062796      1.02096425
H      -2.12076897      1.34080035     -0.33935437
