12
b3lypvtz=-155892.02793344
N       2.43040293     -0.13547098     -0.08675248
C       1.12606916      0.33387354     -0.12663052
C       0.04954881     -0.23627539      0.42328567
C      -1.30722062      0.38913890      0.39834360
O      -2.21656296     -0.21301471     -0.53871342
H       3.01911589      0.14516952     -0.85379778
H       2.54102746     -1.11041354      0.14583024
H       1.02790056      1.29867600     -0.61383006
H       0.14605373     -1.20162913      0.91540283
H      -1.75462460      0.37290349      1.40007910
H      -1.23532926      1.43350563      0.09244041
H      -2.22065211     -1.16207734     -0.38096259
