13
b3lypvtz=-122483.41582517
C       0.95646792     -0.78825054     -0.00000116
C       0.00000811      0.00003646     -0.93847280
C      -1.16091334     -0.43416561     -0.00000102
C       0.00000773      0.00003289      0.93847294
C       0.20456124      1.22250431      0.00000237
H       2.00323579     -0.48240217     -0.00000054
H       0.85624347     -1.87416663     -0.00000341
H       0.00003460      0.00002468     -2.02728216
H      -2.05128434      0.19547249      0.00000007
H      -1.41945268     -1.49361596     -0.00000302
H       0.00003356      0.00001720      2.02728229
H      -0.58347648      1.97630825      0.00000382
H       1.19518041      1.67850165      0.00000362
