9
b3lypvtz=-190938.17672913
C      -1.28093783      0.26241155      0.12134934
O       0.12485891      0.56329570      0.17996603
C       0.94384272     -0.51016151      0.15491967
O       0.60255742     -1.65395391      0.08945522
O       2.22668230     -0.11638118      0.21470631
H      -1.57233061     -0.35050338      0.97217747
H      -1.51666328     -0.26585319     -0.80054239
H      -1.78566822      1.22326272      0.15133520
H       2.25765861      0.84788319      0.26177083
