7
b3lypvtz=-166837.73647962
C       1.81510225     -0.39232442      0.34239254
C       0.70483284     -0.06183686      0.03525150
C      -0.61211450      0.40765668     -0.33262845
O      -0.90645471      1.56707849     -0.46454603
O      -1.47416358     -0.61470998     -0.51083006
H       2.79933913     -0.68495198      0.61465773
H      -2.32654143     -0.22091193     -0.75329499
