10
b3lypvtz=-152712.18158107
C      -1.93912486     -0.53651407      0.02136526
N      -1.31408674      0.57176166     -0.01667767
N       0.04486527      0.63636293      0.02754899
C       0.97621679     -0.38296893     -0.01918813
N       2.24145164     -0.26633483      0.01032564
H      -1.48721253     -1.52217830      0.09780385
H      -3.01868894     -0.47776356     -0.02238229
H       0.38144795      1.58535875      0.01738080
H       0.54873781     -1.37707994     -0.09739452
H       2.53612162      0.70917231      0.08990408
