11
b3lypvtz=-170975.57396673
C      -2.03278773     -0.03296946     -0.01034864
C      -0.68782072     -0.69093975      0.04405706
C       0.47708528     -0.05159901      0.00859505
N       1.76129766     -0.56562970     -0.09817420
F       0.52527923      1.30144534     -0.00089579
H      -2.63141222     -0.27455451      0.87228496
H      -1.94226711      1.05055210     -0.06421267
H      -2.60492969     -0.36446542     -0.88172507
H      -0.64675124     -1.77208385      0.09281353
H       2.43114976     -0.09139749      0.49274465
H       1.80310078     -1.56588924      0.02411111
