9
b3lypvtz=-190931.11144936
O       0.59294608     -1.22468921      1.67249293
C       0.57980638     -0.43393212      0.77194648
O       1.57631856      0.43693386      0.54376250
C      -0.57288355     -0.34845936     -0.22860028
O      -0.41287188      0.73143840     -1.15039454
H       1.32729814      0.95034563     -0.24520612
H      -1.50624218     -0.28439186      0.33079893
H      -0.58853602     -1.28065085     -0.79490567
H      -0.99583552      1.45330553     -0.89979423
