11
b3lypvtz=-145038.95502780992
C       1.52938991     -0.12506661      0.05128498
C       0.07127198      0.12720236     -0.03460609
C      -0.75014125      1.13902660     -0.32422650
O      -1.97164861      0.49124252     -0.15757909
C      -1.17559555     -0.70423084      0.18271788
H       1.84777491     -0.91233852     -0.63837372
H       2.09129278      0.77687071     -0.19444282
H       1.82973168     -0.43973957      1.05508127
H      -0.70640012      2.17937010     -0.61247781
H      -1.39215791     -1.02620622      1.20165108
H      -1.37351780     -1.50613055     -0.52902919
