8
b3lypvtz=-177692.13771612
C       0.71505936      0.13461405      0.43116030
N      -0.02531264      0.09798492     -0.60561285
C      -1.41165966     -0.05261507     -0.38401007
O      -1.96759897     -0.14795330      0.68238453
O       2.03087816      0.27364700      0.34579403
H       0.36747621      0.05932715      1.45901914
H      -1.96766787     -0.07582652     -1.33221356
H       2.25882539      0.33355938     -0.59652153
