10
b3lypvtz=-178436.12980327
N      -1.97133269      0.01086185     -0.08394590
C      -0.73735851     -0.65982880     -0.01038803
C       0.44953809     -0.06053581      0.00998514
O       0.56687329      1.31077863     -0.06542140
O       1.63475538     -0.74797274      0.09813109
H      -1.87742606      1.00193996      0.09228829
H      -2.67267398     -0.38583747      0.52600053
H      -0.76927262     -1.73839354     -0.05096795
H       1.22187730      1.59270882      0.58576905
H       2.16431679     -0.56470989     -0.68924684
