12
b3lypvtz=-132591.6135433
C      -1.53965070     -0.91156985      0.00001569
C      -0.48952734     -0.08624077     -0.00001029
C      -0.62637444      1.40970893     -0.00000638
C       0.86553459     -0.67218270     -0.00002354
N       1.98460186     -0.06938588      0.00005049
H      -2.55810551     -0.54577162      0.00004279
H      -1.40494651     -1.98610563      0.00000388
H      -0.14838620      1.84974035     -0.87903944
H      -0.14834525      1.84974125      0.87900401
H      -1.67339757      1.70723119      0.00001860
H       0.89022118     -1.76421012      0.00002368
H       1.86063489      0.94479186      0.00004752
