10
b3lypvtz=-155101.22460590172
C      -1.76229080      0.13488799     -0.07435144
O      -0.49560803      0.57046125     -0.62167690
C       0.55194089      0.02026212     -0.04741278
N       0.86896072     -0.78870105      0.85066713
C       1.97581237     -0.06024406     -0.01911704
H      -1.87169385     -0.94197581     -0.19696812
H      -2.52459673      0.66282291     -0.63783239
H      -1.82037143      0.39124816      0.98283471
H       2.51215099     -0.68191679     -0.72808071
H       2.56569589      0.69315527      0.49193755
