9
b3lypvtz=-165209.50954157
C       1.60333393      0.02425978      0.20707328
N       0.60361937      0.66159892     -0.24506460
C      -0.68160370      0.09109757     -0.13844557
N      -1.73336183      0.65281202     -0.55985488
O      -0.74169330     -1.12605371      0.45523079
H       1.53489901     -0.95379982      0.68242011
H       2.58544879      0.48072125      0.11591826
H      -1.49692677      1.55099456     -0.97167165
H      -1.67371550     -1.38163057      0.45439425
