11
b3lypvtz=-142661.80782558
C       1.58998536     -0.81870936     -0.03626553
C       0.50146073     -0.03775376      0.02427737
N       0.51875597      1.35485052     -0.04441423
C      -0.83509827     -0.66935851      0.07830914
N      -1.96731211     -0.11231627     -0.06482196
H       2.59139109     -0.41284420     -0.08965884
H       1.48585882     -1.89268342     -0.07006182
H      -0.12853856      1.81330425      0.58093193
H       1.43790953      1.76455323      0.02017607
H      -0.81697238     -1.74349971      0.26336495
H      -1.86399217      0.88350323     -0.27168109
