14
b3lypvtz=-133320.70335975543
C      -2.11694762      0.18929898      0.14015169
C      -0.93286671     -0.42923482     -0.62378123
C       0.33704122     -0.49821028      0.15555092
N       1.40719678      0.20901797     -0.19451314
C       2.63480059      0.34695500      0.31890294
H      -3.02577264      0.17947785     -0.46637249
H      -1.90336186      1.22067846      0.42495350
H      -2.32075317     -0.37054167      1.05466114
H      -0.75976561      0.14548572     -1.54138239
H      -1.23081606     -1.43059721     -0.96010407
H       0.42450883     -1.11236353      1.04021054
H       1.26008607      0.75993643     -1.03369400
H       3.32662560      0.98806134     -0.19384050
H       2.90002458     -0.19796423      1.20790218
