12
b3lypvtz=-155876.82438917554
C      -1.80127355     -0.13838316      0.00150738
C      -0.62807711     -0.47288692     -0.89799938
O       0.60906658     -0.42094176     -0.16108701
C       1.32089380      0.70044240     -0.30926259
N       2.39939639      0.60444591      0.46013551
H      -2.73720522     -0.23329319     -0.55248696
H      -1.72005883      0.88526354      0.36849876
H      -1.84034124     -0.81222193      0.85827111
H      -0.55317021      0.22233718     -1.73348300
H      -0.70169018     -1.49110372     -1.28178265
H       3.05770811      1.36129971      0.46589485
H       2.59475146     -0.20495807      1.04414047
