10
b3lypvtz=-181040.92806764
N       1.67809413     -0.64126287      0.09492871
C       0.41889540     -0.03033061     -0.01273295
N       0.48968184      1.36153940     -0.08087150
C      -0.72733490     -0.71537939     -0.04165745
F      -1.91991739     -0.04683728      0.04152569
H       2.30549430     -0.35821911     -0.64839961
H       1.62932406     -1.64783214      0.15456035
H       1.10565347      1.75394771      0.61865483
H      -0.41855431      1.80151460     -0.06266225
H      -0.83162261     -1.78384731     -0.13459082
