13
b3lypvtz=-122512.81234734
C      -2.21520692      0.51049004     -0.19968709
C      -1.25347000     -0.40155461     -0.15640443
C       0.00000007     -0.30060094      0.67108557
C       1.25346964     -0.40155636     -0.15640499
C       2.21520841      0.51048635     -0.19968709
H      -2.15829604      1.42509453      0.37916844
H      -3.09603564      0.37640629     -0.81377831
H      -1.35150859     -1.30186210     -0.75733943
H       0.00000086      0.63094365      1.24029572
H      -0.00000034     -1.12156406      1.40039867
H       1.35150622     -1.30186351     -0.75734080
H       2.15829962      1.42509039      0.37916937
H       3.09603671      0.37640133     -0.81377863
