12
b3lypvtz=-184208.95400521
C       1.77778344     -0.56515607      0.02813362
C       0.43985223      0.05547606     -0.33303628
O       0.41555727      1.37510534      0.20069506
C      -0.71819851     -0.75378037      0.21590085
F      -1.91908640     -0.11625323     -0.12675321
H       2.58645091      0.04771763     -0.36759573
H       1.89367726     -0.62077702      1.11155674
H       1.87075973     -1.56896201     -0.38877026
H       0.33565376      0.09466097     -1.42576527
H      -0.46298510      1.73829747      0.04321038
H      -0.67530136     -0.80397309      1.30565465
H      -0.74502123     -1.76004068     -0.20657554
