9
b3lypvtz=-144262.68039575
O       1.99353408      0.42256023     -0.00016801
C       1.15110273     -0.44422039     -0.00012784
C      -0.28263599     -0.19367557     -0.00002745
C      -1.48206789     -0.68608570      0.00012237
C      -1.39515266      0.81617125      0.00003571
H       1.42633565     -1.51627239     -0.00007072
H      -2.13693628     -1.53924452      0.00023936
H      -1.62229074      1.36181506      0.91225114
H      -1.62249689      1.36171104     -0.91219056
