9
b3lypvtz=-165160.22004664
C      -1.47270120      0.61898477     -0.63988255
C      -0.81385103     -0.34527780     -0.00461918
N       0.59192894     -0.56421288      0.02467350
N       1.27292003      0.23474982     -0.62056439
O       2.60432679     -0.04918470     -0.53527914
H      -0.96657040      1.37045364     -1.22851003
H      -2.55023123      0.66554423     -0.57447383
H      -1.33469136     -1.08986608      0.58092149
H       2.66876945     -0.84129099      0.03663414
