8
b3lypvtz=-159348.40674835
C      -2.54788794     -0.17216986      0.00000252
C      -1.38022602      0.11437902      0.00000032
C      -0.01666893      0.49656355     -0.00000251
C       0.97605193     -0.38807674      0.00000171
F       2.25635817      0.00569473     -0.00000396
H      -3.57629387     -0.43413351     -0.00000688
H       0.22408536      1.55357950     -0.00000951
H       0.86548131     -1.46339169      0.00000631
