11
b3lypvtz=-168361.0797962
C       1.74391674     -0.33220664     -0.49956517
O       0.63420360      0.54412466     -0.70912616
C      -0.58496471      0.17739150     -0.27426356
C      -1.65687636      0.95593242     -0.43957215
O      -0.58236642     -1.04253283      0.33182723
H       1.59709454     -1.28841370     -1.00207068
H       2.59748912      0.18253253     -0.93231923
H       1.91875767     -0.50690565      0.56220211
H      -2.62670371      0.64406094     -0.08411468
H      -1.56099492      1.90849474     -0.93274306
H      -1.47955554     -1.24247796      0.61692864
