13
b3lypvtz=-143421.35944939
N       2.46763083     -0.16357483     -0.02324076
C       1.16973400      0.31639267     -0.18820373
C       0.06612672     -0.14996542      0.40010677
C      -1.27877944      0.49113265      0.26357309
N      -2.26178037     -0.46475211     -0.27202626
H       3.06245843     -0.06673614     -0.83108799
H       2.53105731     -1.08904251      0.37437970
H       1.11280978      1.20108060     -0.81491417
H       0.11419216     -1.04225428      1.01781784
H      -1.17875478      1.40901369     -0.33450939
H      -1.64839739      0.80162394      1.24685324
H      -2.00643650     -0.72462777     -1.21817801
H      -3.18120075     -0.03982848     -0.31811431
