12
b3lypvtz=-153475.84281463
N      -2.19817349     -0.51786498     -0.13838703
C      -1.23343430      0.55751765      0.12832737
C       0.12312645     -0.02269743      0.38179136
N       1.12465910      0.32865538     -0.31682300
N       2.33111848     -0.28975839     -0.09142354
H      -3.14010754     -0.14765087     -0.17629919
H      -2.00819591     -0.93850701     -1.04071415
H      -1.57318844      1.07816981      1.02962062
H      -1.14083280      1.30472134     -0.66801691
H       0.20081516     -0.77933439      1.17084829
H       2.45871977     -0.64545611      0.85275724
H       3.08722553      0.31827499     -0.36542508
