15
b3lypvtz=-146591.72769786
C      -1.10817256     -0.78940813      0.61694674
C      -0.01883708      0.22962133      0.27720916
C      -0.58416546      1.43097089     -0.48540870
C       1.12093172     -0.41195678     -0.51892832
O       1.75791557     -1.49343042      0.15615642
H      -1.87317494     -0.34928205      1.25914109
H      -1.60083833     -1.14357649     -0.29270604
H      -0.68806207     -1.65611876      1.12610411
H       0.41154542      0.59843611      1.21774511
H      -1.37339865      1.92165225      0.08621012
H       0.18733068      2.17462580     -0.69581924
H      -1.01547188      1.11865083     -1.44009353
H       1.85520457      0.35408329     -0.79763990
H       0.72907295     -0.83890878     -1.44535923
H       2.20012005     -1.14525909      0.93654221
