9
b3lypvtz=-190905.55787052
C      -0.77867502     -0.31606157      0.07315476
C       0.30980037      0.23205488     -0.46053531
O       0.40712505      0.58996775     -1.76249686
O       1.44488530      0.49289140      0.24461824
O      -0.72841830     -0.63227538      1.43520228
H      -1.67287633     -0.51935654     -0.49139839
H       1.28684052      0.95959543     -1.89719951
H       1.29565232      0.21094003      1.15715257
H      -1.56433391     -1.01775599      1.70150223
