8
b3lypvtz=-175262.43919334648
C      -1.58087522     -0.62377118      0.48188105
N      -0.47798472      0.04450494      0.32652979
O      -0.31950982      1.28735409      0.21079343
N       3.41891736      1.14534874     -0.08961478
N       2.59761220      0.43782212      0.03352486
H      -2.51159596     -0.08213301      0.52258945
H      -1.51333422     -1.69583548      0.56337321
H       0.38677039     -0.51329021      0.29321463
