11
b3lypvtz=-142643.83192563851
C      -1.36708739      0.39001576      0.27963303
C      -0.26929412     -0.52567380     -0.27723341
C       1.09464216     -0.26236479      0.30373568
N       2.03563985      0.26183278     -0.40866720
N       2.85695952      0.71459686     -1.05169914
H      -1.44423035      0.29381228      1.36398278
H      -1.15736325      1.43585720      0.05210244
H      -2.33847370      0.13446299     -0.14871806
H      -0.54048942     -1.56860481     -0.08696720
H      -0.21518995     -0.41996819     -1.36240629
H       1.34488666     -0.45396628      1.33623736
