8
b3lypvtz=-208587.6269793
N       1.90403570     -0.02319662     -0.20450295
C       0.86913080     -0.63722697      0.16710650
C      -0.49837518     -0.02462676      0.38901065
F      -1.42472360     -0.72443945     -0.33208453
F      -0.52164112      1.26989855     -0.03473590
H       1.70231691      0.96873153     -0.35291586
H       0.91518389     -1.70909226      0.36394056
H      -0.80691139     -0.04342001      1.43796354
