8
b3lypvtz=-175231.9646099
N      -2.00310700      0.14394267      0.47283603
C      -0.86339235     -0.23811315      0.09319145
N      -0.01204065      0.60855368     -0.68926838
N       1.20352234      0.50771681     -0.67503120
O       1.70192187     -0.47276092      0.23455888
H      -2.17336777      1.10631283      0.17014574
H      -0.50712075     -1.24039314      0.30694229
H       2.65368430     -0.41535877      0.08662519
