7
b3lypvtz=-221062.08429653
O       1.55197036     -0.92240043      0.49990506
C       0.89288110     -0.09849597     -0.06784156
C      -0.62240841      0.00233493      0.10164208
F      -0.91961295      1.24917554      0.56468783
F      -1.20091061     -0.13644406     -1.12447527
H       1.32057850      0.65366146     -0.75762801
H      -1.02249800     -0.74793147      0.78370987
