7
b3lypvtz=-164411.63553140394
C       0.11750907     -0.47274618     -0.03301564
N      -0.89684281      0.36316147      0.03889174
O      -1.98058865      0.18944102      0.62316824
C       1.27565650     -0.10414135     -0.74449753
N       2.23144689      0.18634284     -1.32519897
H       0.02212292     -1.42510716      0.46431474
H      -0.76930391      1.26304934     -0.44816812
