9
b3lypvtz=-165171.89411366
N      -0.91476027      0.95825376      1.16311174
C      -1.11805734     -0.07459021      0.45168619
C      -0.21571124     -0.76218780     -0.49438433
N       0.98671872     -0.51134504     -0.84778700
O       1.53335996      0.60925328     -0.22573497
H       0.02492168      1.32045689      1.01738651
H      -2.09829277     -0.55079488      0.52701155
H      -0.61828035     -1.63862283     -0.99235082
H       2.42010161      0.64967683     -0.59913887
