14
b3lypvtz=-133343.45908094
C      -2.45059442      0.16322126     -0.29016476
C      -1.36290598     -0.33120066      0.28705416
C      -0.03842597      0.36689425      0.35590039
N       1.02568612     -0.47608183     -0.18221074
C       2.34835279      0.12611128     -0.09301181
H      -2.44715944      1.13774946     -0.76539884
H      -3.38538736     -0.38203956     -0.30281322
H      -1.39095901     -1.31456096      0.74649455
H       0.20832797      0.56576211      1.40549711
H      -0.10863495      1.34912541     -0.13988830
H       0.81356613     -0.70743328     -1.14518684
H       2.42612612      1.11749722     -0.56689706
H       3.08217554     -0.53259231     -0.55810859
H       2.62639847      0.24083361      0.95700094
