13
b3lypvtz=-171736.58245418
C      -1.73560581     -0.67136070      0.01551104
C      -0.43090502      0.04034253     -0.33217027
N      -0.43333180      1.39022823      0.23643013
C       0.75008128     -0.71778035      0.24001564
F       1.94458302     -0.09332424     -0.14186644
H      -1.75690169     -1.68341129     -0.39211472
H      -2.58708063     -0.12981920     -0.39991259
H      -1.86839228     -0.72162404      1.09725706
H      -0.31174729      0.03966227     -1.42634610
H       0.44272514      1.85431440      0.02591692
H      -1.17117090      1.94818101     -0.17673099
H       0.78277048     -1.74241667     -0.13472484
H       0.71615249     -0.71635794      1.33126917
