11
b3lypvtz=-165968.08371269
N       2.15620475      0.80609732     -0.19587842
C       1.66063828     -0.30226107      0.15234770
O       0.37337659     -0.70634119      0.24432034
C      -0.67500993      0.24373589     -0.10169435
N      -1.96179154     -0.33391529      0.04684806
H       1.46172267      1.50519401     -0.44733049
H       2.31371514     -1.12219197      0.44215136
H      -0.52526696      0.55500377     -1.13726021
H      -0.57972467      1.11114347      0.55422454
H      -2.13709956     -0.62154712      1.00082458
H      -2.08666477     -1.13481781     -0.55855311
