13
b3lypvtz=-145814.11049673
C      -1.93490824     -0.44291069      0.07926762
C      -0.57368917     -0.06080712     -0.44914349
C       0.09815533      1.22484505     -0.01197054
C       0.64205538     -0.09193827      0.43466795
O       1.89029361     -0.45438974     -0.09727823
H      -2.04035019     -0.16774772      1.13073211
H      -2.10763189     -1.51889320     -0.00027996
H      -2.73079147      0.06363045     -0.47152855
H      -0.37902371     -0.33907640     -1.47848218
H       0.68436259      1.75850417     -0.74680605
H      -0.40316968      1.84882876      0.71613438
H       0.49532716     -0.36890537      1.47570097
H       1.90979728     -1.41120492     -0.20165905
