11
b3lypvtz=-142630.5883130917
C      -2.14560647      0.05792710     -0.82256148
N      -0.85822398      0.29260411     -0.61486427
C       0.05252053     -0.25866792      0.20314002
N       1.29734347      0.25085959      0.14020641
C       2.26415331     -0.18281873      0.86741090
H      -2.64199064     -0.71620165     -0.26318032
H      -2.66057502      0.65492447     -1.55181708
H      -0.43575672      1.03357329     -1.16785492
H      -0.26458106     -1.06737511      0.85403319
H       3.24117364      0.27302044      0.76559662
H       2.15154293     -0.99482441      1.58989095
