13
b3lypvtz=-122521.62753768
C      -2.22957623      0.26224148     -0.73826289
C      -0.92717347      0.53699882     -0.05891810
C       0.17935585     -0.20277109     -0.18081526
C       1.43422067      0.08435180      0.48984343
C       2.54359803     -0.64878274      0.37304608
H      -2.17766929     -0.63097979     -1.36130127
H      -2.52938833      1.10252953     -1.37153110
H      -3.03337952      0.12292515     -0.00922000
H      -0.89450162      1.41387745      0.58302951
H       0.16050064     -1.08245407     -0.81969900
H       1.44734764      0.96411800      1.12731689
H       3.45305518     -0.38869370      0.89655388
H       2.57361043     -1.53336084     -0.25202315
