10
b3lypvtz=-152736.64818174
C       1.82302501     -0.14035058      0.23013811
N       0.79146180     -0.49038611     -0.40920075
C      -0.45008767      0.12411833     -0.07773290
N      -0.69506004      1.37564793     -0.03446317
N      -1.43880590     -0.80587210      0.10389343
H       1.80591968      0.59069808      1.04440475
H       2.78346765     -0.57424938     -0.03733205
H       0.13086283      1.91837229     -0.26430313
H      -1.17366713     -1.75470594      0.29621315
H      -2.29892723     -0.46944451      0.50004757
