12
b3lypvtz=-179206.53128551
N       1.57062981      0.03585467     -0.55000754
C       0.85839363     -0.18731207      0.71159268
C      -0.63090354      0.03057568      0.45886503
O      -0.85822143      1.24354712     -0.19861867
O      -1.06840476     -1.07803082     -0.31973080
H       1.44191319     -0.75413683     -1.16975422
H       2.56253515      0.15805129     -0.40032068
H       1.19449383      0.55561361      1.43527749
H       1.00644698     -1.18170786      1.14532421
H      -1.19013704      0.07427666      1.39802145
H      -0.10693746      1.34087395     -0.80878088
H      -1.93583938     -0.85043140     -0.67093507
