10
b3lypvtz=-155142.65888704
C      -1.59732895     -0.78339547      0.02343172
C      -0.50136203     -0.00543660     -0.01202148
N      -0.44786524      1.36631416     -0.06590919
C       0.82175577     -0.67326881     -0.02072447
O       1.86993329     -0.07027830      0.02265456
H      -2.60100832     -0.38218749      0.05132285
H      -1.48819531     -1.85752715      0.02083177
H       0.45410563      1.75833025      0.15756855
H      -1.24122641      1.88648486      0.26562086
H       0.78623956     -1.77646748     -0.05990117
