12
b3lypvtz=-132561.16845279778
C      -2.44707842      0.11948094     -0.15187583
C      -1.20432875     -0.37965180     -0.29459862
C       0.01568086      0.34505893     -0.24300979
N       1.19485756     -0.27293804     -0.39911431
C       2.44994988      0.16955983     -0.39215840
H      -3.31474788     -0.52040949     -0.20815036
H      -2.62076756      1.17348348      0.02344023
H      -1.10693691     -1.45136026     -0.46857004
H       0.04613951      1.41216596     -0.07747667
H       1.10651584     -1.27194897     -0.55170697
H       2.63968971      1.21731898     -0.23635308
H       3.24102617     -0.54075954     -0.54378471
