8
b3lypvtz=-177693.65878026
C       1.35300337     -0.30025548     -0.10998723
N       0.11402068     -0.48738387     -0.29400471
C      -0.75564866      0.42020700      0.42156116
O      -0.42484048      1.30815326      1.15271818
O      -2.03639094      0.13414686      0.15527704
H       1.73104126      0.48964932      0.54180827
H       2.06124724     -0.94803138     -0.61846109
H      -2.04243247     -0.61648571     -0.45531161
