12
b3lypvtz=-132559.20690211
C       2.59417562     -0.24518525     -0.00232967
C       1.45881369      0.14047401     -0.00230194
C       0.07603073      0.60665439      0.02461698
N      -0.87504721     -0.49116573     -0.13933130
C      -2.25747518     -0.06298625      0.01809699
H       3.59944028     -0.58501990     -0.01141914
H      -0.07844341      1.31708455     -0.79404026
H      -0.08388445      1.17588850      0.95687505
H      -0.65526432     -1.22426989      0.52321737
H      -2.91485529     -0.92914906     -0.05154634
H      -2.52380130      0.61950993     -0.79203296
H      -2.46380317      0.45308170      0.96942322
