11
b3lypvtz=-142645.60716249
C      -2.24866966     -0.08470417      0.13781109
C      -1.01591208     -0.41194906      0.53249601
C       0.19172984      0.02724421     -0.13301583
N       1.34333380     -0.31816345      0.30680379
N       2.44547847      0.06548022     -0.39596138
H      -2.41910617      0.54331325     -0.72866481
H      -3.12362809     -0.43491718      0.66694110
H      -0.86389818     -1.04304689      1.40099063
H       0.08775508      0.65934289     -1.02284957
H       3.26012995      0.09262328      0.19650199
H       2.34268703      0.90467689     -0.96105303
