12
b3lypvtz=-155901.18479013
C       1.56268972     -0.73844777     -0.25281376
C       0.42945962      0.04914735      0.41294477
N       0.45656124      1.44307689      0.00189274
C      -0.89663867     -0.66198984      0.18254225
O      -1.86353564     -0.15610645     -0.32560791
H       1.44949836     -0.72928526     -1.33933438
H       1.57458335     -1.77816355      0.07650173
H       2.52013171     -0.28337082     -0.00539096
H       0.59173971      0.00738932      1.49931745
H       0.36768292      1.50006655     -1.00767012
H      -0.35714844      1.92488479      0.36922594
H      -0.92716690     -1.71724523      0.53313225
