17
b3lypvtz=-124056.32578252
C       0.78021924     -1.32354007      0.02243250
C       0.00001619     -0.00011101     -0.00006864
C       0.22748788      0.70585850     -1.34559712
C      -1.49860698     -0.28584592      0.18156082
C       0.49097286      0.90342756      1.14147591
H       1.85139054     -1.15101301     -0.10397062
H       0.45231926     -1.98753635     -0.78055401
H       0.63648249     -1.84906051      0.96917188
H      -0.11392157      0.08624814     -2.17787969
H       1.28674132      0.92142167     -1.50273329
H      -0.31556779      1.65255002     -1.39001228
H      -1.69086626     -0.78881343      1.13196456
H      -1.87676944     -0.92725750     -0.61765424
H      -2.07971780      0.63899033      0.17003578
H      -0.04699605      1.85403078      1.14982882
H       1.55589241      1.12381315      1.03874825
H       0.34121970      0.42687466      2.11288937
