11
b3lypvtz=-142658.68823753
N       1.61123710     -0.84046935      1.15462725
C       0.69861864     -0.26104806      0.50104657
C       0.03622442     -0.32263754     -0.88568110
C      -1.01397838      0.65958655     -0.29585769
N      -0.16545757      0.74133495      0.90033106
H       2.08967565     -1.53027261      0.58250903
H       0.64352496      0.08347772     -1.69230765
H      -0.33921409     -1.30457575     -1.16555391
H      -1.13827954      1.60747848     -0.82010331
H      -1.99250654      0.20471537     -0.12695177
H      -0.42984466      0.96251023      1.84794152
