12
b3lypvtz=-179203.28392399
C       1.94211042     -0.04355184      0.07794599
N       0.64057360     -0.57847010     -0.32415286
C      -0.50015186      0.02166270      0.33397790
O      -0.62488970      1.35823273     -0.07162699
O      -1.63494447     -0.75766334      0.06642886
H       1.99572531      1.01502930     -0.16875292
H       2.72651664     -0.55996243     -0.47404158
H       2.14551410     -0.14971001      1.15219476
H       0.60596292     -1.57764044     -0.16409558
H      -0.42974279      0.05987939      1.42635941
H      -0.45017371      1.38358094     -1.02166585
H      -1.68023446     -0.88924491     -0.88938615
