7
b3lypvtz=-164453.88273851
C       1.13156952     -0.61415896      0.02216430
N       2.20696334     -1.02231611      0.04478422
C      -0.18638656     -0.00800330     -0.00462077
N      -0.41685492      1.23274114      0.00074488
O      -1.16284675     -0.92919376     -0.03660443
H       0.43184738      1.78864824      0.02639867
H      -2.00429201     -0.44771724     -0.05286686
