10
b3lypvtz=-155143.03182219
C       2.23754891     -0.09740337      0.02565865
C       0.76476120     -0.27934749     -0.09922298
N      -0.06005635      0.66138665      0.10277823
C      -1.43564688      0.41971763      0.06230185
O      -2.01691855     -0.39159919      0.73804581
H       2.48046496      0.91969651      0.32422812
H       2.63430867     -0.80145259      0.76238176
H       2.73004525     -0.32941782     -0.92245152
H       0.41243162     -1.27809997     -0.38044125
H      -1.96094582      1.11495665     -0.61337866
