12
b3lypvtz=-155875.38007571985
C       1.89390174      0.25841799     -0.15253567
C       0.38981708      0.33400365     -0.29616065
O      -0.13392540      1.18718496     -1.07034218
C      -0.41553604     -0.52893809      0.41769688
N      -1.83703399     -0.25291785      0.10210024
H      -2.04541789      0.73294797      0.29834224
H      -1.98063539     -0.32180841     -0.91212223
H      -2.48131957     -0.86158448      0.59838364
H       2.27183025      1.22247913      0.19218387
H       2.33957714      0.06568104     -1.12992165
H       2.21197679     -0.51885350      0.54385675
H      -0.21323472     -1.31661241      1.11772700
