10
b3lypvtz=-183443.29593611
C       1.79393630     -0.54156874      0.00000203
C       0.41015973      0.00746261     -0.00000119
O       0.36428831      1.37155409     -0.00000397
C      -0.68621883     -0.74322261     -0.00000005
F      -1.91172214     -0.13685832     -0.00000552
H       2.33880620     -0.19565605      0.88091460
H       2.33880847     -0.19566022     -0.88091078
H       1.78283694     -1.63003444      0.00000464
H      -0.56126601      1.64738171     -0.00000613
H      -0.72875498     -1.81890003     -0.00000262
