12
b3lypvtz=-132583.86512534
N      -1.89855858     -0.14004417     -0.06392529
C      -0.64929871     -0.03060570      0.03883362
C       0.37543579      1.10514464      0.07695470
C       1.49124131      0.03574799     -0.12189923
C       0.43675925     -1.09507444      0.07196752
H      -2.34820842      0.77693450     -0.09572013
H       0.41261408      1.59998554      1.04949354
H       0.27042285      1.86794479     -0.69523019
H       1.91660688      0.05155414     -1.12348647
H       2.30154645      0.05905066      0.60309908
H       0.50068759     -1.59178361      1.04183182
H       0.36983150     -1.85891735     -0.70209297
