9
b3lypvtz=-167617.75320168
O       1.81258382      0.01761295      0.00000089
C       0.62653270      0.03101680     -0.00000075
C      -0.49745350      1.06387088      0.00001043
C      -1.40826846     -0.16908296     -0.00000381
O      -0.22858103     -1.04549919     -0.00001374
H      -0.52441816      1.68865796      0.88992410
H      -0.52441756      1.68867798     -0.88988919
H      -2.00299863     -0.33172013     -0.89576006
H      -2.00299817     -0.33174028      0.89574914
