12
b3lypvtz=-132566.24820474
C       2.21816741     -0.06339582     -0.10634988
C       1.03828495     -0.01439098      0.10377232
C      -0.39925087      0.03982194      0.38146464
C      -1.11718835     -1.20876470     -0.14477532
N      -0.97916216      1.23622545     -0.25406725
H       3.26072462     -0.10762766     -0.29972334
H      -0.50865022      0.05356132      1.47645386
H      -2.17983741     -1.15795844      0.10112794
H      -0.70443023     -2.11153815      0.30438596
H      -1.01355435     -1.26852167     -1.22726412
H      -1.94509716      1.33777066      0.03751483
H      -0.48636623      2.06808905      0.04904338
