15
b3lypvtz=-144182.54732298
C      -1.97981526      0.54557678      0.27739901
C      -1.03950229     -0.25898927     -0.61634739
N       0.01182982     -0.93326101      0.14491392
C       1.10710172     -0.10333172      0.63838438
N       1.94882829      0.62226378     -0.31249106
H      -2.41679744     -0.09547380      1.04362828
H      -1.46246182      1.36428404      0.78006964
H      -2.78610238      0.98356203     -0.31392776
H      -0.64049913      0.39577596     -1.40738275
H      -1.61398181     -1.03399400     -1.12723796
H       0.38412829     -1.70888402     -0.38838449
H       0.69414962      0.63238806      1.32934047
H       1.75893558     -0.75421919      1.22283123
H       1.42099134      1.31273522     -0.83132820
H       2.36938147     -0.00779285     -0.98581133
