11
b3lypvtz=-168386.71754917
C      -1.58964709      0.31485519     -0.08322047
C      -0.26570843     -0.40956295      0.00211706
O       0.78419810      0.59220485      0.01638702
C       2.03925530      0.13468414      0.08823277
O       2.37076694     -1.01739768      0.14131797
H      -1.73068243      0.97369620      0.77370059
H      -1.64961431      0.91383135     -0.99200276
H      -2.40494916     -0.40988715     -0.09614125
H      -0.18305772     -1.00985968      0.90839264
H      -0.10230672     -1.06943624     -0.85011171
H       2.73174553      0.98687199      0.09132815
