10
b3lypvtz=-155111.53591688
N       2.19302801      0.07355880      0.02875936
C       1.00275811     -0.00937609     -0.39386069
C      -0.23196325     -0.03287197      0.42813601
C      -1.45273142      0.64272267     -0.04366531
O      -1.33616066     -0.77190772     -0.11304447
H       2.21962279      0.10702225      1.05123280
H       0.83563011     -0.06531890     -1.47199458
H      -0.08814358     -0.14907745      1.49975804
H      -1.44007998      1.15949530     -0.99824787
H      -2.15653812      1.02237911      0.68983671
