12
b3lypvtz=-155861.15999568
C      -2.48081646     -0.23849952      0.05714432
C      -1.12870300      0.40311387      0.11184140
C       0.00801479     -0.20860170     -0.21630889
N       1.25336569      0.42721862     -0.34000230
O       2.27388130     -0.32463714      0.35511392
H      -2.40935490     -1.29318359     -0.21169175
H      -3.12922590      0.24841613     -0.67741729
H      -2.99177746     -0.16928989      1.02134677
H      -1.09264133      1.44747176      0.41189244
H       0.03340955     -1.25415428     -0.50021110
H       1.24374394      1.33987446      0.10402562
H       2.93822979     -0.46196370     -0.32843414
