12
b3lypvtz=-155837.86426494597
C      -0.42640361     -0.88436997     -0.50406253
C       1.04876136     -0.25255712     -0.30371424
C       0.20950296      1.08208349      0.05695789
N      -0.81598596      0.09533529      0.59071038
O       1.60082545     -0.73852445      0.77397807
H      -0.55072418     -1.92226339     -0.20899598
H      -0.97218135     -0.62716261     -1.41176347
H       1.64069215     -0.17883899     -1.23335665
H       0.62733625      1.72020365      0.83019307
H      -0.23916738      1.64018268     -0.76473614
H      -1.78257235      0.36136479      0.75370070
H      -0.34008333     -0.29545337      1.42108890
