8
b3lypvtz=-154362.228316203
C      -1.49951217      0.37897090     -0.10883204
N      -0.27824850      0.66895259      0.09218536
C       0.61810681     -0.34223051      0.40920686
C       1.89276837     -0.03999348      0.61976795
O       3.01067583      0.18778136      0.80967826
H      -1.89794950     -0.63858857     -0.04668843
H      -2.19088690      1.17728093     -0.35577002
H       0.34504606     -1.39217320      0.50013970
