10
b3lypvtz=-206749.5865948
O       1.52281760     -0.82535714      0.06828280
C       0.46274483      0.01570532     -0.33262138
O       0.64575931      1.34288360      0.08264942
C      -0.78610605     -0.63056362      0.24518277
F      -1.91011090      0.08209117     -0.14149056
H       2.33844990     -0.47393954     -0.30412954
H       0.38356638      0.07665578     -1.42161858
H       0.64394295      1.36571565      1.04757425
H      -0.87972198     -1.65524949     -0.11584045
H      -0.73266703     -0.63520373      1.33752626
