13
b3lypvtz=-143423.85009097
C      -1.61111541     -0.73785773      0.06381893
N      -0.36990084     -0.01675658     -0.13971910
C      -0.41364009      1.42377779     -0.00664823
C       0.82956335     -0.68104934     -0.05165338
N       2.01318008     -0.22303260      0.06718420
H      -1.99894195     -0.62175077      1.08349341
H      -1.44884861     -1.79932342     -0.11677028
H      -2.37648219     -0.38741132     -0.63209256
H       0.37075654      1.88342985     -0.60887597
H      -0.29028831      1.75702245      1.03168771
H      -1.37321766      1.78862082     -0.37116672
H       0.70726074     -1.76201587     -0.12415203
H       2.03308136      0.79150071      0.15323501
