8
b3lypvtz=-151973.88434321
C      -0.71089505      0.70270546     -0.07040256
C      -0.73486852     -0.69084007      0.08199909
N       0.51522828     -1.12392254      0.23162836
N       1.22750080     -0.01008159      0.16608684
N       0.55374434      1.11514976     -0.01330391
H      -1.51651965      1.40122406     -0.21330301
H      -1.56432708     -1.37592432      0.09044940
H       2.23013688     -0.01831076      0.24843506
