11
b3lypvtz=-170969.62536517
N      -2.30433673     -0.14872844     -0.07552316
C      -0.92049708     -0.26569707     -0.00962405
C      -0.04000488      0.73501929      0.01867789
C       1.44135899      0.54312983     -0.01003567
F       1.78411447     -0.80940559      0.02034867
H      -2.81738687     -0.90606140      0.34557950
H      -2.67972592      0.74974589      0.18755844
H      -0.56087532     -1.28627173     -0.04170751
H      -0.37331759      1.76819555      0.04962771
H       1.88905309      0.96550664     -0.91658158
H       1.92275184      1.01691003      0.85221676
