10
b3lypvtz=-152684.59827263304
C      -1.66946947      0.54504446      0.23171600
N      -0.87538800     -0.49586813      0.07343205
C       0.46546150     -0.65608517      0.20762364
N       1.20343987      0.40317685      0.56978150
N       2.45424608      0.20077776      0.68171269
H      -2.72180033      0.40700001      0.06014663
H      -1.24334069      1.48754536      0.52398721
H      -1.34302543     -1.35012158     -0.20212155
H       0.86956060     -1.64069055      0.01287345
H       2.86031585      1.09922099      0.96027103
