15
b3lypvtz=-123278.87599464
C      -1.95570584     -0.50046435      0.07420707
C      -0.60666682     -0.06428483     -0.44472429
C      -0.00000003      1.24303262     -0.00000009
C       0.60666662     -0.06428482      0.44472441
C       1.95570564     -0.50046447     -0.07420685
H      -2.08854987     -0.20389524      1.11680155
H      -2.07150270     -1.58575560      0.02180639
H      -2.76823617     -0.05098749     -0.50171483
H      -0.41665339     -0.33272631     -1.47863052
H      -0.54555653      1.83098024      0.72687722
H       0.54555673      1.83098007     -0.72687735
H       0.41665321     -0.33272599      1.47863072
H       2.76823600     -0.05098604      0.50171378
H       2.07150321     -1.58575555     -0.02180422
H       2.08854893     -0.20389724     -1.11680197
