10
b3lypvtz=-181023.82277434
N       1.97998794      0.59130430     -0.35930472
N       0.64468789      0.62844139     -0.62062536
C      -0.12120794     -0.20404802     -0.03795616
C      -1.59312531     -0.11745266     -0.23869035
F      -2.07156923     -1.30678792     -0.80833466
H       2.50668333      0.99035610     -1.11974515
H       2.34669120     -0.30535874     -0.05117124
H       0.26090476     -0.99266774      0.61809363
H      -1.82968868      0.70909540     -0.90741554
H      -2.12336395      0.00701790      0.70914957
