15
b3lypvtz=-146587.94600574
C      -2.37900468      0.41342729     -0.00000194
C      -1.18435414     -0.51901657     -0.00000245
O      -0.00000004      0.25722662     -0.00000020
C       1.18435359     -0.51901729     -0.00000132
C       2.37900469      0.41342585     -0.00000074
H      -2.36649677      1.05215125     -0.88358854
H      -3.30799613     -0.15895175     -0.00000361
H      -2.36649824      1.05214845      0.88358670
H      -1.20450993     -1.17182885      0.88435911
H      -1.20450841     -1.17182587     -0.88436623
H       1.20450850     -1.17182903      0.88436066
H       1.20450796     -1.17182716     -0.88436468
H       2.36649811      1.05214873     -0.88358814
H       3.30799580     -0.15895376     -0.00000071
H       2.36649770      1.05214810      0.88358710
