12
b3lypvtz=-132560.23977015
C      -0.51208198      0.50244659      0.84081342
C      -0.91721432     -0.57825503     -0.21508544
C       0.36461629     -0.25417626     -0.99216780
C       0.75320050      0.78362519      0.02109343
N       1.55036345     -0.41994894     -0.16444295
H      -1.21010049      1.33832935      0.85741948
H      -0.34363214      0.16747969      1.86655203
H      -1.82613362     -0.30531792     -0.74947918
H      -1.01100641     -1.61035999      0.12938870
H       0.48950176     -0.26465243     -2.06613932
H       1.23982503      1.74042380     -0.10877638
H       1.42266194     -1.09959404      0.58082401
