11
b3lypvtz=-168364.32335502
O      -1.69549735      0.90282734      0.76864518
C      -1.44832309     -0.34550535      0.30632287
C      -0.28998656     -0.85395730     -0.11846127
C       1.03879070     -0.16962169     -0.19213799
O       0.92943761      1.18398276      0.27412902
H      -0.85939411      1.39565763      0.74252476
H      -2.34515945     -0.95226396      0.30898595
H      -0.29858521     -1.88336588     -0.45236531
H       1.40746313     -0.17712108     -1.22638778
H       1.77435429     -0.71308274      0.41548224
H       1.78700004      1.61245028      0.22236232
