8
b3lypvtz=-175256.94948319
N      -1.78770053      0.05246692      0.00000886
N      -0.79763035     -0.68402287      0.00004070
C       0.45219789      0.08403058     -0.00003140
N       0.60724800      1.33134915      0.00000213
O       1.46517006     -0.79407626      0.00001945
H      -2.61591239     -0.55811620     -0.00013932
H      -0.30099431      1.79407078     -0.00000188
H       2.28312164     -0.27793009      0.00001846
