11
b3lypvtz=-168368.27823348
O      -2.61983467     -0.39776441      0.07978669
C      -1.61255963      0.07829584     -0.37615821
C      -0.23934217     -0.52761816     -0.24571484
C       0.72030362      0.38866010      0.52726661
O       2.03600996     -0.13868553      0.60147879
H      -1.65088005      1.03949683     -0.93356817
H      -0.31468025     -1.49928265      0.24027039
H       0.15654725     -0.67010071     -1.25898798
H       0.38486809      0.48421019      1.55989167
H       0.72155283      1.39317539      0.08730687
H       2.41801501     -0.15048689     -0.28157183
