11
b3lypvtz=-170963.08425661
C      -2.20757373     -0.13732211      0.19184390
N      -0.85985687     -0.28954978     -0.33245904
C       0.06359070      0.71284141     -0.08591081
C       1.37514896      0.54987204      0.06041745
F       1.92092071     -0.70025703      0.04123136
H      -2.62098797      0.81588341     -0.14129678
H      -2.84107518     -0.92847358     -0.20749561
H      -2.26340896     -0.16654863      1.28771520
H      -0.47703455     -1.21590210     -0.21561642
H      -0.32606427      1.72240155     -0.06300410
H       2.10212917      1.33691281      0.17098284
