13
b3lypvtz=-166738.11740536
C       1.50245988     -0.16799415     -0.12666398
C      -0.01013420      0.00827893     -0.00556200
N      -0.39059370      1.27492083     -0.59889914
N      -0.68344856     -1.12284953     -0.62911355
O      -0.40839124      0.01682384      1.37169316
H       2.01226510      0.64328630      0.39257441
H       1.81018358     -0.16094280     -1.17230938
H       1.80275790     -1.11362859      0.32222643
H       0.10262597      2.03391716     -0.14053143
H      -1.37988635      1.43420316     -0.43681255
H      -1.68789703     -0.99665781     -0.55512020
H      -0.45635398     -1.15929527     -1.61630054
H      -0.31981938     -0.88664308      1.69774176
