10
b3lypvtz=-155140.80214298
C       1.87287846     -0.17704402      0.00055113
N       0.73613119     -0.73738477     -0.00235045
C      -0.40551708      0.16822809     -0.00139540
C      -1.70727494     -0.57626441      0.00036318
O      -0.31147341      1.36949988     -0.00238530
H       1.99477959      0.90878301      0.00377577
H       2.76417766     -0.79948493     -0.00035590
H      -2.54554148      0.11441421      0.00113434
H      -1.75056856     -1.23018444     -0.87296563
H      -1.74862442     -1.22983363      0.87405326
