8
b3lypvtz=-180278.72202855
N      -1.98026462     -0.05236532      0.00004572
C      -0.84058690     -0.59659360     -0.00007530
C       0.48267391      0.10536985     -0.00003925
N       0.77511476      1.31915949     -0.00001490
F       1.48308655     -0.79358394     -0.00003134
H      -1.91975949      0.96947951      0.00018947
H      -0.77564354     -1.68332072     -0.00022425
H      -0.05332667      1.90992272     -0.00003214
