12
b3lypvtz=-132590.68823665
C      -1.96754658     -0.02903786     -0.05682783
C      -0.80327088     -0.66605207      0.06666420
C       0.52654868     -0.05064250      0.01588339
C       1.62600276     -0.82248538     -0.03165471
N       0.56724410      1.34431711     -0.04922421
H      -2.02820546      1.03474278     -0.24584863
H      -2.90479103     -0.56495487      0.00062417
H      -0.79849389     -1.73870647      0.21946772
H       1.53961764     -1.89735597     -0.07132702
H       2.62127211     -0.39992999     -0.06886130
H      -0.11073803      1.80794336      0.53714603
H       1.48782557      1.73603387      0.07693920
