15
b3lypvtz=-144184.07096618
N      -1.71716597     -0.65786247     -0.44520275
C      -1.13825445      0.19788418      0.59667353
C       0.01676535      1.03559284      0.04942104
C       1.16098969      0.22546384     -0.58007525
N       1.82904705     -0.74733538      0.28447563
H      -2.15113674     -0.09155433     -1.16589316
H      -2.44686351     -1.24565541     -0.06088141
H      -1.86776610      0.87046970      1.06898627
H      -0.76521310     -0.45620350      1.38909575
H      -0.36966499      1.73580427     -0.70109749
H       0.41089872      1.65209276      0.86448549
H       0.78172856     -0.31779846     -1.44554634
H       1.91656219      0.92261025     -0.95170905
H       1.19763098     -1.50161630      0.52396261
H       2.12870434     -0.31888800      1.15309713
