15
b3lypvtz=-123289.08365988
C       2.10757768     -0.07523066     -0.00000356
C       0.73138213     -0.66951861     -0.00000295
C      -0.44707782     -0.04193400     -0.00000008
C      -0.62698305      1.45210464      0.00000305
C      -1.73614892     -0.82133560      0.00000165
H       2.10637122      1.01311089      0.00000321
H       2.67341692     -0.40639909      0.87589384
H       2.67341235     -0.40638873     -0.87590787
H       0.71027674     -1.75637427     -0.00000525
H       0.31186581      2.00060212     -0.00001258
H      -1.20134999      1.76915518     -0.87595970
H      -1.20132127      1.76915548      0.87598468
H      -2.34391972     -0.57538513     -0.87655971
H      -1.56002115     -1.89668007     -0.00000125
H      -2.34391493     -0.57538916      0.87656750
