12
b3lypvtz=-155873.25790771
C      -2.29125769     -0.05711849      0.00024764
C      -0.81832256     -0.46157117     -0.00030685
C       0.11384523      0.71390953     -0.00019913
N       1.38430839      0.68327379      0.00001815
O       1.86634017     -0.64168625      0.00013450
H      -2.53926225      0.53661721      0.88217146
H      -2.93694398     -0.93544751      0.00013844
H      -2.53977175      0.53721034     -0.88113365
H      -0.58798705     -1.08599037     -0.86838614
H      -0.58746691     -1.08656110      0.86721019
H      -0.29462808      1.72038988     -0.00031906
H       2.81979150     -0.51330387      0.00036045
