11
b3lypvtz=-165928.51002225012
C      -1.09631764     -0.63083672      0.40230522
C      -0.16629566      0.41336131     -0.07812740
N       1.11201966      0.19036416     -0.22004689
N       1.75645805     -0.93313614      0.09278407
O      -0.55281287      1.72395809     -0.24176490
H      -2.09101676     -0.49738114     -0.03009325
H      -0.70060737     -1.60918329      0.13161915
H      -1.20167703     -0.61006649      1.49300474
H       1.61949958      1.00530329     -0.56616555
H       2.70385008     -0.80575377     -0.25278551
H      -1.38310005      1.75337073     -0.73072967
