15
b3lypvtz=-123278.93036206
C       0.96990087      1.27310771      0.00000101
C       0.14959719     -0.00000555      0.00000015
C       0.96981684     -1.27317291     -0.00000213
C      -1.15354887      0.00003634      0.75543530
C      -1.15354979      0.00003848     -0.75543336
H       1.61310370      1.32547583     -0.88258233
H       1.61311242      1.32546900      0.88257840
H       0.33232208      2.15858190      0.00000767
H       1.61301971     -1.32557911     -0.88258318
H       1.61302145     -1.32558100      0.88257753
H       0.33217966     -2.15860508     -0.00000243
H      -1.45141553      0.90843476      1.26235198
H      -1.45147529     -0.90834365      1.26234987
H      -1.45141682      0.90843836     -1.26234722
H      -1.45147662     -0.90834007     -1.26235027
