14
b3lypvtz=-156661.78542780687
C       1.82517335     -0.01386737      0.16591670
C       0.41289948     -0.45120338     -0.17668995
C      -0.65195895      0.46893084      0.42379883
N      -1.97272067      0.07117243     -0.08280167
O       0.27856065     -0.47431773     -1.59010645
H       1.98369138     -0.01645379      1.24609855
H       2.54903256     -0.68994838     -0.28864136
H       2.01413751      0.99123414     -0.21524623
H       0.24969410     -1.46522253      0.22412666
H      -0.45735015      1.48825439      0.08343952
H      -0.57561980      0.46127664      1.51845874
H      -0.67646362     -0.45298091     -1.75301549
H      -2.64939170      0.81512681      0.02344218
H      -2.32968415     -0.73200118      0.42121998
