11
b3lypvtz=-168362.99755301
C      -1.63839957     -0.71375953     -0.03217984
C      -0.62045678      0.13908523      0.03399656
O      -0.81091566      1.47317496      0.19030815
C       0.83345562     -0.30356223     -0.05928667
O       1.65463951      0.85936404      0.04945884
H      -1.45756744     -1.77114392     -0.15696162
H      -2.65919864     -0.36947449      0.03695663
H       0.06176688      1.89226578      0.21226313
H       1.05416093     -1.00903421      0.74658659
H       1.00254930     -0.80768694     -1.01484322
H       2.57996583      0.61077132     -0.00639854
