8
b3lypvtz=-154355.03650542
C       0.84228715      0.06532147      0.05709952
C      -0.35706869      0.05505012      0.05849670
C      -1.79335664      0.10939377      0.05082238
N      -2.50629476      1.14771761     -0.09512779
O      -2.36275966     -1.10335662      0.22128719
H       1.90426795      0.06786662      0.05680841
H      -1.93733609      1.97969324     -0.21197774
H      -3.32043926     -0.95678621      0.20089133
