8
b3lypvtz=-151960.44025393
C       0.59320230     -0.26624437      0.18700532
N      -0.31881954      0.60829386      0.41013415
N      -1.58479996      0.20635892      0.52082717
C       1.95723689      0.13311244      0.12015670
N       3.07902483      0.39230588      0.04928060
H       0.38082213     -1.32702837      0.04394159
H      -2.25345214      0.94946885      0.41450654
H      -1.85321451     -0.69626722      0.14313457
