9
b3lypvtz=-141904.35653873
N      -2.36480294     -0.43382732     -0.18138394
C      -1.34941124      0.08731600     -0.03984655
C      -0.04761062      0.72186059      0.14484487
C       1.07256602     -0.29223405      0.33236402
N       2.18542644     -0.30334883     -0.25915278
H       0.16509099      1.37198131     -0.70587787
H      -0.10286289      1.35492295      1.03648069
H       0.87536197     -1.06581309      1.07546505
H       2.26483825      0.45561644     -0.93956749
