9
b3lypvtz=-165166.65277176
C      -1.78963491     -0.18829660      0.20955547
N      -1.07534237      0.81545307     -0.09851659
C       0.32299852      0.69982760     -0.19961957
N       0.95163823     -0.38602417      0.00794051
O       2.32691553     -0.22081217     -0.15959582
H      -1.39140421     -1.18384544      0.41243586
H      -2.86519340     -0.04825815      0.27528661
H       0.84654398      1.61207219     -0.47111845
H       2.67347861     -1.10011635      0.02363199
