11
b3lypvtz=-121730.21088866
C      -2.39682726     -0.43728056     -0.14946231
C      -1.33639500      0.11317867     -0.04402032
C      -0.03785671      0.76951699      0.09683200
C       1.07936682     -0.19660308      0.40983297
C       2.19260825     -0.30919004     -0.29958623
H      -3.33550812     -0.92195885     -0.24922148
H      -0.11131219      1.51177395      0.90005532
H       0.19569075      1.32265466     -0.81631469
H       0.92674707     -0.82143734      1.28338255
H       2.96929660     -1.00962438     -0.02314231
H       2.36965178      0.29352098     -1.18267149
