11
b3lypvtz=-142669.22264695
C       1.94208726      0.04756188     -0.09786252
C       0.81866855     -0.62897225      0.12315880
C      -0.55562610     -0.08588153      0.02431167
N      -1.60533996     -0.81115001     -0.07920521
N      -0.67424404      1.29119033     -0.01505011
H       2.90849818     -0.43199705     -0.01984040
H       1.93764110      1.08990093     -0.38892632
H       0.86708170     -1.68197781      0.37675506
H      -1.35889131     -1.79639999     -0.11533821
H      -1.62933077      1.60990560      0.04274754
H      -0.02905861      1.81727790      0.55112370
