8
b3lypvtz=-154381.86154397
N      -2.38447569     -0.39928671     -0.11222594
C      -1.35535886      0.10559467     -0.02021179
C      -0.03093721      0.69842126      0.09767109
C       1.08398755     -0.34750451      0.20723241
O       2.19034064     -0.14662570     -0.20390132
H       0.00626721      1.30842175      1.00701663
H       0.18160928      1.35602248     -0.74545408
H       0.80462607     -1.29029924      0.71337701
