7
b3lypvtz=-162030.15620457
C      -0.48109806     -0.63684492      0.35072456
N      -0.31395325      0.65530753      0.02540315
N       0.96692271      0.99603189      0.27325021
N       1.53471217     -0.06164653      0.72967407
N       0.65978039     -1.10464825      0.79267352
H      -1.40472434     -1.18001944      0.25723982
H      -0.96163962      1.33181972     -0.34324357
