11
b3lypvtz=-145042.26557954
C      -2.61282198      0.18716743     -0.00986400
C      -1.18253745     -0.08387380      0.00559510
C      -0.00222097     -0.31181058      0.00693131
C       1.43737935     -0.56471035      0.03178239
O       2.22951074      0.61465331     -0.09731803
H      -3.14488211     -0.55982728     -0.60234849
H      -3.03159147      0.17579477      0.99832326
H      -2.81915970      1.16570015     -0.44809856
H       1.69477908     -1.10932400      0.94868739
H       1.71950628     -1.20154651     -0.80843965
H       1.90857323      1.25829487      0.54227028
