14
b3lypvtz=-133296.34983630056
C       2.05912094      0.25840364      0.22183911
N       0.57801779      0.27002321      0.27320266
H       0.26526714      0.05702417      1.23565018
H       0.23605520      1.23505355      0.12714173
C      -0.08064638     -0.63228618     -0.66881784
C      -1.46828856     -0.59816089     -0.59860136
C      -2.24402825      0.16712090      0.23417148
H       2.39705885     -0.75218590      0.43424183
H       2.36497774      0.54004851     -0.78202520
H       2.46494054      0.95538043      0.95162586
H       0.56544672     -1.21077415     -1.29967587
H      -1.98073442     -1.26023708     -1.29017557
H      -1.83637585      0.86076069      0.96272375
H      -3.32081146      0.10982908      0.19869924
