11
b3lypvtz=-121722.5173464
C      -1.86380191     -0.64996175      0.00028061
C      -0.70591729     -0.01117045      0.00029700
C       0.00008903      1.30640006      0.00025783
C       0.70593769     -0.01125729      0.00004556
C       1.86375345     -0.65017295      0.00013943
H      -1.90810361     -1.73186984      0.00015262
H      -2.80353316     -0.11265951      0.00036490
H       0.00010373      1.89744843      0.91223763
H       0.00014188      1.89751782     -0.91167888
H       1.90794331     -1.73208303      0.00040569
H       2.80353888     -0.11297050     -0.00020239
