11
b3lypvtz=-168370.36128255
C       2.03961595      0.03944015     -0.02056835
C       0.72053772     -0.66649573      0.03095549
C      -0.46385181     -0.06752066      0.00664016
O      -0.62353645      1.29187019      0.07196402
O      -1.63972119     -0.76552520     -0.09322926
H       2.65386305     -0.33386970     -0.84474601
H       2.61389800     -0.11924823      0.89672589
H       1.90996939      1.11245575     -0.15067906
H       0.70736572     -1.74645847      0.08921828
H      -1.29908598      1.55284611     -0.56660848
H      -2.26124939     -0.42012921      0.56023134
