12
b3lypvtz=-153478.45513029
C      -2.12904375      0.55066992      0.01638597
N      -1.15016407     -0.51104643     -0.22672766
N       0.08315371     -0.18660492      0.46569258
C       1.05989867     -0.10080484     -0.34629981
N       2.31350461      0.27498739      0.05587202
H      -3.09952457      0.21628086     -0.35391535
H      -2.21912455      0.82149425      1.07569261
H      -1.84171512      1.44341421     -0.53990969
H      -1.48993685     -1.34141279      0.24878415
H       0.93790437     -0.28329808     -1.41433620
H       3.08900825     -0.01659315     -0.51262257
H       2.47888529      0.27382459      1.05020196
