12
b3lypvtz=-155866.83269387487
C      -1.20964796     -0.73658718     -0.16077528
C      -0.02552852      0.14907369      0.01022102
N      -0.19405525      1.44271583      0.02108935
O      -1.26848219      2.11587386     -0.09757359
C       1.36601636     -0.39633341      0.17217289
H      -1.31740706     -1.40973959      0.69473960
H      -1.09881251     -1.36556845     -1.04891842
H      -2.11012276     -0.13596508     -0.25850442
H       0.66330497      1.99592943      0.14284143
H       1.81639784     -0.10848350      1.12593081
H       1.34156918     -1.48410579      0.14317155
H       2.03676790     -0.06680984     -0.62583277
