7
b3lypvtz=-190325.9434902
C      -0.63585748     -0.30475301      0.08444790
N      -1.74187657      0.25461033      0.24312145
N       0.58187092      0.41217140     -0.17604887
N       1.57690125     -0.31393471     -0.30396162
F      -0.52993582     -1.62461818      0.15070956
H      -1.62413902      1.26206742      0.15758918
H       2.37303671      0.31445675     -0.48448354
