15
b3lypvtz=-144179.81960205
C      -1.85757767      0.80413816     -0.77084951
N      -0.93673535     -0.03817345     -0.02055440
C       0.42769215     -0.03381986     -0.53686547
C       1.35782993     -0.82818487      0.38297990
N       1.47925277     -0.32258565      1.74936297
H      -1.56093089      1.84998511     -0.66821540
H      -1.89951981      0.57577322     -1.84747109
H      -2.86348088      0.70432630     -0.36198798
H      -1.28431598     -0.99030244     -0.00449584
H       0.49643340     -0.42926305     -1.56549417
H       0.76494987      1.00702750     -0.57857577
H       2.35363794     -0.87206026     -0.06334684
H       1.00222606     -1.86346630      0.43376983
H       0.54930641     -0.12776520      2.10538895
H       1.97103206      0.56437080      1.74645482
