10
b3lypvtz=-155133.28078305
N      -2.17241276     -0.32181626     -0.21671967
C      -1.02083751     -0.27465735      0.30421192
C       0.00103908      0.82077035      0.14444743
C       1.41624067      0.34286232     -0.10076887
O       1.76946172     -0.80629461     -0.07016941
H      -2.34945789      0.49486868     -0.80656172
H      -0.72204649     -1.10294433      0.94619718
H       0.03960339      1.42637874      1.06114887
H      -0.27828663      1.51572443     -0.65424811
H       2.14319542      1.15493404     -0.30926961
