10
b3lypvtz=-155109.58421181174
C      -0.77638754     -0.75975608     -0.07550974
C       0.50179258     -0.02004667      0.43679065
C      -0.31676170      1.18359584      0.02324475
N      -1.39535805      0.58487287     -0.32667165
O       1.75886818     -0.27439375     -0.14101134
H      -0.62785410     -1.32114077     -0.99813937
H      -1.33307631     -1.37082185      0.63632685
H       0.64477732     -0.10115702      1.51496499
H      -0.14489958      2.25799628      0.02702341
H       1.68889921     -0.17914883     -1.09701855
