9
b3lypvtz=-165225.11985629
N      -2.11865054     -0.11335049      0.02820728
C      -0.79097026     -0.26006788     -0.06612976
N       0.01572224      0.74178156      0.02145707
C       1.37465759      0.42771699     -0.01100011
O       1.87737362     -0.66027457      0.17163008
H      -2.50397068      0.80172883      0.19462627
H      -2.73888095     -0.89478094     -0.07410661
H      -0.44200030     -1.28090748     -0.23032239
H       1.99294329      1.31682797     -0.20815683
