10
b3lypvtz=-160118.81982069
C      -2.05948496      0.07076914     -0.15673524
C      -0.61152013      0.00051853     -0.03774589
C       0.58491475     -0.04802394      0.05574271
C       2.03072736     -0.12655673      0.17574951
F       2.64265488      1.06997311     -0.20665607
H      -2.45044999     -0.78484464     -0.71060848
H      -2.53758539      0.08712403      0.82441448
H      -2.35634684      0.97631849     -0.68943672
H       2.43180927     -0.91703110     -0.46303997
H       2.32528107     -0.32824691      1.20831570
