9
b3lypvtz=-120959.94703807
C       2.71831357      0.00000421     -0.00007398
C       1.51286694      0.00030782     -0.00007138
C       0.14918102      0.00051665      0.00003045
C      -1.05798348      0.00051172      0.00008325
C      -2.50903813      0.00012457      0.00009013
H       3.77938524     -0.00029571     -0.00024853
H      -2.89969940     -0.45708198     -0.91147290
H      -2.89966767     -0.56090295      0.85170944
H      -2.90029509      1.01791766      0.06002051
