14
b3lypvtz=-133284.50053097942
C      -1.11436475     -0.86669584     -0.59297317
C      -0.44828372      0.32567851      0.01067340
C      -0.73815580      1.59752334     -0.23406247
N       0.66851388      0.00834686      0.92142054
H       0.36831399     -0.66788452      1.61958061
H       0.91654536      0.84897883      1.43557315
C       1.99863329     -0.55327871      0.34277621
H      -1.88384749     -0.55756776     -1.29652566
H      -1.58750928     -1.48311857      0.17898728
H      -0.39002531     -1.49156476     -1.11495701
H      -1.49748586      1.86791118     -0.95306887
H      -0.21295590      2.40761457      0.25659100
H       1.72291456     -1.53517145     -0.05892206
H       2.19770705      0.09922830     -0.51509297
