11
b3lypvtz=-145039.99907807
C      -1.72233658      0.02563692     -0.29022155
C      -0.42274665      0.07714013      0.47048080
C       0.67739769      1.02382474      0.03937080
C       1.40105320     -0.05575831     -0.25667708
O       0.49090638     -1.03941621      0.08420958
H      -2.33390360      0.89494114     -0.03921413
H      -1.53813223      0.02824501     -1.36421980
H      -2.28473760     -0.87184320     -0.02779201
H      -0.57567775      0.02160280      1.54957111
H       0.80525986      2.09017554      0.00882600
H       2.38036027     -0.31329857     -0.63285771
