13
b3lypvtz=-143427.93473839
C       1.79356144     -0.65083384      0.01690253
C       0.44015929     -0.00995524     -0.00876240
N       0.43138851      1.38418742      0.05809479
C      -0.69697078     -0.72005290     -0.01467189
N      -1.96483507     -0.05110976     -0.01849478
H       2.39604431     -0.32164955     -0.83601074
H       2.34032492     -0.37557189      0.92250961
H       1.71451773     -1.73563953     -0.02294136
H       1.19565837      1.83078946     -0.42706381
H      -0.46886078      1.76733962     -0.20262183
H      -0.65666370     -1.80357226      0.00284136
H      -2.33183674      0.08096620      0.91834745
H      -2.65972451     -0.56791273     -0.54079093
