13
b3lypvtz=-122517.25333229
C      -2.02443604     -0.10915911      0.19797904
C      -0.85067469     -0.54856880     -0.25029095
C       0.45346337      0.11385393     -0.06232986
C       0.59245733      1.44080589     -0.10092913
C       1.62799347     -0.80692765      0.14850025
H      -2.10749320      0.80126880      0.77812402
H      -2.93860614     -0.65493384      0.00631726
H      -0.82101078     -1.49826342     -0.77897393
H      -0.24647155      2.09285824     -0.30358061
H       1.55501883      1.91058301      0.05501839
H       1.74149380     -1.48928787     -0.69876772
H       2.55708977     -0.25062892      0.26419851
H       1.48478583     -1.42915926      1.03579174
