10
b3lypvtz=-176025.05072278
N      -1.14798488     -1.06904858     -0.72144540
C      -0.16288668     -0.16876439     -0.31522689
N      -0.47909939      1.16251262     -0.48045817
N       0.93372813     -0.62763193      0.16904778
O       1.86310285      0.45181738      0.35309616
H      -0.87822283     -2.02012963     -0.51255678
H      -2.05764153     -0.85532507     -0.33338901
H       0.31274099      1.77395275     -0.35291188
H      -1.02043625      1.36298606     -1.30679791
H       2.63669961     -0.01026920      0.68444211
