8
b3lypvtz=-154362.62547322
C       0.02802961      0.76069696     -0.03004708
C       1.07863893     -0.16476259      0.20894940
N       0.63444435     -1.36418947      0.47019492
O      -0.75776348     -1.26228083      0.40944575
C      -1.08535640      0.00353596      0.11235504
H       0.09671778      1.80681386     -0.26640923
H       2.14367146      0.00571866      0.19864451
H      -2.13838224      0.21446744      0.03581660
