14
b3lypvtz=-133297.27156614145
C      -1.63440508     -0.81617489      0.61014652
C      -0.33298305     -0.18264898      0.23793054
N      -0.31860561      1.26419060     -0.01074153
H       0.35005473      1.75449538      0.61319107
H       0.02880024      1.48693566     -0.96285198
H      -1.23792854      1.68155527      0.10576145
C       0.93048145     -0.73146743      0.07321372
C       2.09081103     -0.07905681     -0.27467871
H      -1.62749244     -1.29291081      1.59965053
H      -2.43816866     -0.07169171      0.64838605
H      -1.97449541     -1.58016351     -0.10197514
H       0.99647745     -1.80293879      0.24191665
H       3.02058734     -0.61722404     -0.37259357
H       2.14686655      0.98710008     -0.46789675
