10
b3lypvtz=-155139.57853088
C      -1.15207532      0.06989136      0.00000496
N      -0.51480977      1.15916704      0.00000042
C       0.91526239      0.79527613     -0.00007806
C       0.92851135     -0.75167504      0.00008976
O      -0.48180466     -1.10996710     -0.00001966
H      -2.22972782     -0.02729011      0.00002399
H       1.40022958      1.22003653     -0.87991181
H       1.40040164      1.22022891      0.87956426
H       1.38488403     -1.18658563     -0.88787720
H       1.38468357     -1.18637008      0.88826935
