10
b3lypvtz=-155096.13736777162
C       0.06650093     -0.91719881      0.28851198
C       1.20422475      0.12214225     -0.03485807
O       2.41419588     -0.01056809      0.01014150
C       0.24194343      1.08391633     -0.33967789
N      -0.92515641      0.19487805     -0.06410643
H      -1.52620833     -0.04067219     -0.85580987
H      -1.53144077      0.45332491      0.71637738
H      -0.04259746     -1.76516652     -0.38550155
H      -0.04768741     -1.22692644      1.32595798
H       0.14622541      2.10627054     -0.66103504
