13
b3lypvtz=-166731.89529124
N      -1.90835063      0.04482460      0.05417682
C      -0.69348984     -0.75100768     -0.16424495
C       0.52441747      0.02587060      0.34205928
N       1.73345194     -0.66302984     -0.01587956
O       0.49278547      1.35125862     -0.18110581
H      -2.23071499     -0.03799016      1.01115443
H      -2.66443965     -0.26549352     -0.54115169
H      -0.70841805     -1.73898166      0.30609333
H      -0.57601750     -0.89596915     -1.24081001
H       0.49057427      0.06913692      1.43990673
H       2.53341734     -0.20415519      0.40268130
H       1.86370380     -0.61800061     -1.02145897
H      -0.44842864      1.58362608     -0.22993190
