11
b3lypvtz=-142648.59368088
C       1.54051560     -0.74279914      0.15326405
N       1.16461326      0.62368080     -0.16237699
C      -0.03455802      1.02808741     -0.10114771
C      -1.27994801      0.27943185      0.23989254
N      -1.63838148     -0.87085496     -0.15799053
H       0.79464538     -1.31898097      0.70846273
H       2.46792104     -0.71239090      0.72592385
H       1.76873163     -1.26871811     -0.77778867
H      -0.20090302      2.08938168     -0.30384200
H      -1.97818462      0.82827162      0.87808490
H      -0.93628976     -1.28027229     -0.77650016
