9
b3lypvtz=-141912.2384530546
C       0.61101210      0.76882961     -0.35190406
C       1.08136868     -0.55622874     -0.24652103
N       0.11501230     -1.39782939      0.10075851
N      -0.97510247     -0.61925047      0.21912851
C      -0.72758475      0.68618377     -0.04217080
H       1.16469716      1.65261096     -0.61448749
H       2.07951977     -0.92876574     -0.40872635
H      -1.84935929     -1.03983539      0.47939989
H      -1.49956350      1.43428539      0.01060858
