12
b3lypvtz=-132533.81711578
C       1.13535780     -0.40340742     -0.03581897
C      -0.10973214      0.05117772     -0.82097102
C      -0.19261067      1.16587193      0.23913400
N       0.14683660     -0.06803897      1.09855224
C      -0.88738337     -0.78804307      0.21069153
H       2.01544156      0.23971143     -0.04813368
H       1.41079859     -1.45753790     -0.07282442
H      -0.25438309      0.11859767     -1.90299336
H       0.58711498      1.92769495      0.24751042
H      -1.17054823      1.59314658      0.46160834
H      -1.91762871     -0.50804580      0.43112690
H      -0.76326332     -1.87092712      0.19221804
