12
b3lypvtz=-155834.41970229134
C      -0.39210026     -1.00028301     -0.42667584
C      -1.47455987     -0.27492645     -0.06592426
O      -1.30664526      1.03150828      0.50331637
C       0.97782568     -0.70644200     -0.34885764
N       1.35313283      0.61178596      0.21981243
H       1.00907250      0.74361417      1.17669258
H       2.36390905      0.71210275      0.22729779
H       0.95509856      1.39819613     -0.30410768
H      -0.62220522     -1.97325958     -0.84690990
H      -2.49226955     -0.61160809     -0.17551429
H      -2.17603463      1.38648231      0.69084429
H       1.80477618     -1.31717046     -0.64997387
