9
b3lypvtz=-162753.64161469
C      -1.85832822     -0.58293348      0.00007489
N      -1.28350069      0.55387135     -0.00004239
N       0.06580620      0.63963759      0.00035310
N       0.89001848     -0.40893085      0.00010026
N       2.09574677     -0.07844237     -0.00015757
H      -2.94000003     -0.56980091     -0.00021118
H      -1.33455025     -1.53323422      0.00045881
H       0.46422852      1.57123828     -0.00021967
H       2.62446421     -0.95250840     -0.00027726
