6
b3lypvtz=-153617.9446065769
C      -0.02821329      0.44167369      0.00894503
C      -1.17374131     -0.22182605      0.00583418
O      -2.18313238     -0.77470752      0.00372113
C       1.21712623     -0.22408748     -0.01500348
N       2.24753214     -0.74338551     -0.03420276
H      -0.07957140      1.52233287      0.03070590
