11
b3lypvtz=-145061.73837823
C      -0.56915728      1.09826259      0.05903270
C      -1.19647045     -0.06978068     -0.00684748
O      -0.38810872     -1.16541073     -0.11247601
C       0.97640045     -0.68701006      0.04252413
C       0.91917238      0.85389252     -0.05044934
H      -1.04088703      2.06443764      0.12258239
H      -2.25321011     -0.28908047     -0.00253076
H       1.58087975     -1.15474900     -0.73186503
H       1.33085652     -1.02091207      1.01985381
H       1.49448572      1.32513993      0.74827465
H       1.32039078      1.22637633     -0.99814506
