10
b3lypvtz=-131799.32055219
C       2.59683054     -0.13750072      0.00004302
C       1.41416948      0.07325184      0.00004716
C       0.02568247      0.41036829      0.00004859
N      -0.88706099     -0.47014629      0.00002946
C      -2.25979538     -0.01548429      0.00004650
H       3.63743570     -0.34764510      0.00004338
H      -0.19752292      1.48547044      0.00006919
H      -2.36721328      1.07729007      0.00007031
H      -2.76801704     -0.42420993     -0.87596612
H      -2.76801158     -0.42424831      0.87604451
