11
b3lypvtz=-145038.00486551
C       2.56919842      0.04335516     -0.14489300
C       1.40738613      0.33519811     -0.07845237
C      -0.01345214      0.64643705      0.00530664
C      -0.88104400     -0.60927088      0.19666665
O      -2.25766795     -0.28807758      0.32584582
H       3.59974142     -0.20325666     -0.20238132
H      -0.20102437      1.32987573      0.83708745
H      -0.32709914      1.16655292     -0.90583147
H      -0.59824448     -1.10987295      1.12201132
H      -0.70590408     -1.30967508     -0.62599748
H      -2.59188980     -0.00116581     -0.52936225
