7
b3lypvtz=-190314.11769139
C      -1.22598270     -0.00000012      0.05519408
N      -0.06009447      0.38713341     -0.21785529
N       0.89138375     -0.57212854      0.28660980
N       2.05528359     -0.26781892      0.06019379
F      -2.26476487      0.72874726     -0.31388688
H      -1.49869711     -0.90766496      0.58508491
H       2.10287182      0.63173187     -0.45534042
