14
b3lypvtz=-133358.78000712
C      -2.08705122      0.00685766     -0.00381862
C      -0.74377705     -0.65732285      0.02891384
C       0.46458357     -0.07963169      0.00774174
C       0.72826504      1.39914292     -0.00108277
N       1.64820057     -0.83563478     -0.09249844
H      -2.68961945     -0.27043613      0.86684635
H      -2.66017910     -0.29699127     -0.88593486
H      -2.02301910      1.09383913     -0.02057335
H      -0.76728619     -1.74473688      0.04394900
H      -0.18364286      1.98609698      0.05034014
H       1.27310766      1.68196525     -0.90509674
H       1.35420646      1.68106617      0.85198624
H       2.41843333     -0.46701957      0.44727047
H       1.52242535     -1.81994495      0.09467900
