13
b3lypvtz=-145770.12129194403
C      -1.51245592      0.01444861     -0.35818601
C      -0.61269680      0.34012742      0.83303700
C       0.83342987     -0.08260294      0.65199634
O       1.45968650      0.72346067     -0.39206730
C       1.97155733      0.09339937     -1.40186742
H      -2.54043587      0.32023283     -0.16084645
H      -1.18079374      0.52875770     -1.26034534
H      -1.51515872     -1.05639786     -0.56933273
H      -0.64206580      1.41079219      1.05027605
H      -0.98226822     -0.16592011      1.72941509
H       1.41503612      0.10939850      1.55359453
H       0.93902819     -1.12580498      0.35339094
H       2.36713704      0.92736072     -2.02906471
