9
b3lypvtz=-167628.19256851
C      -1.54999362      0.33630748     -0.41725552
C      -0.46081770     -0.27718310      0.02971591
C       0.87588364      0.04706637     -0.52102315
O       1.11443093      0.85526714     -1.38401556
O       1.84380257     -0.69354018      0.07455866
H      -1.47648395      1.08587157     -1.19448096
H      -2.53017489      0.10743182     -0.02232304
H      -0.49973903     -1.03040095      0.80487345
H       2.68319205     -0.43092015     -0.33124981
