10
b3lypvtz=-155129.77576613
C       1.88444368      0.21967791      0.22062348
N       0.63184052      0.43374965      0.18957724
C      -0.25291660     -0.56120917     -0.20110298
C      -1.56394295     -0.26437844     -0.20952427
O      -2.06153740      0.93482705      0.13745474
H       2.33162011     -0.74123545     -0.05262873
H       2.55349548      1.01612813      0.53000654
H       0.09754982     -1.54785641     -0.49110967
H      -2.32499137     -0.97514196     -0.49896366
H      -1.29556130      1.48543871      0.37566733
