13
b3lypvtz=-143409.86807547
C       1.14153720     -1.07770139     -0.08001987
C       0.13937261      0.05075806     -0.03636819
N       0.76452924      1.34298593     -0.09992261
C      -1.19383322     -0.12715145     -0.64056048
N      -1.04852228     -0.08828192      0.83555670
H       1.76789660     -0.99733346     -0.96877960
H       0.64325458     -2.04734155     -0.09083780
H       1.79585547     -1.04434452      0.79573647
H       0.06377901      2.07023390     -0.01735761
H       1.39655470      1.46060083      0.68605526
H      -1.42196303     -1.07188952     -1.12072164
H      -1.70943784      0.72551491     -1.06740201
H      -1.11339103     -1.02638081      1.21878937
