12
b3lypvtz=-155895.13937014
C      -1.53071404     -0.73333318     -0.31436795
C      -0.45227522      0.04787290      0.42880230
O      -0.43825404      1.36804680     -0.10101616
C       0.89799302     -0.63362230      0.30107453
N       1.90990535     -0.20195812     -0.31963462
H      -1.31553018     -0.73644479     -1.38326334
H      -1.57169878     -1.76573335      0.03462228
H      -2.50436061     -0.27172888     -0.15506523
H      -0.70996680      0.07057405      1.49691409
H       0.08069395      1.93232105      0.48139830
H       0.97304496     -1.60255976      0.80274954
H       1.68712439      0.70084657     -0.75040073
