12
b3lypvtz=-132607.55688985
C      -2.30738584      0.01513693     -0.00002433
C      -0.87881868     -0.52244679      0.00008243
C       0.16150774      0.61189582     -0.00000869
C       1.53645140      0.12194112      0.00005985
N       2.61344037     -0.28294245     -0.00023997
H      -2.50153990      0.62896823      0.88196610
H      -3.02894195     -0.80210702      0.00004847
H      -2.50148711      0.62876316     -0.88216893
H      -0.71366803     -1.15404216     -0.87455324
H      -0.71372545     -1.15385179      0.87486655
H       0.02572912      1.25016902      0.87679600
H       0.02583831      1.24992894     -0.87700725
