10
b3lypvtz=-131810.16666439
C       2.53266340      0.14563131     -0.00008214
C       1.09448298     -0.06155468     -0.00332193
C      -0.09894363     -0.22780316     -0.00417090
C      -1.51209392     -0.44773523     -0.00571387
N      -2.42408893      0.44205804      0.00863482
H       3.01956758     -0.49027608     -0.74195094
H       2.95542308     -0.09832997      0.97686503
H       2.78270503      1.18374254     -0.22541443
H      -1.82866037     -1.49134535     -0.02064392
H      -2.01001123      1.37614158      0.02209126
