9
b3lypvtz=-167613.34206108
C      -1.23956024     -0.08443628     -0.64184046
C      -0.15829365      0.26387079      0.06216829
O      -0.03428536      1.42717362      0.73266960
C       1.01081163     -0.63105304      0.15602088
O       1.99148579     -0.31410942      0.79575542
H      -2.10389924      0.55814842     -0.72087831
H      -1.25556752     -1.03698304     -1.14986697
H       0.84573134      1.40858459      1.14698795
H       0.94357725     -1.59119565     -0.38091641
