12
b3lypvtz=-153455.1462971624
C      -0.79960412     -0.80118963      0.13491417
C       0.65355697     -0.46927609      0.31585518
N       1.11454380      0.68079816     -0.12340212
N       2.29106800      1.24426255     -0.17085276
N      -1.58604046      0.42479094     -0.06061457
H      -1.13578162     -1.40778149      0.98590764
H      -0.95344119     -1.42593102     -0.75452918
H       1.35241606     -1.17748720      0.73652387
H       0.36881697      1.27189524     -0.49745565
H       2.95477588      0.56894504      0.21773307
H      -2.46511473      0.22539741     -0.51853421
H      -1.79519555      0.86557609      0.82718731
