10
b3lypvtz=-155141.5220595
C       1.18555908     -1.11349509     -0.13125464
C       0.37861985      0.07220226      0.38203983
O       0.90128978      1.24483907     -0.22593929
C      -1.06027056     -0.08224257      0.08292830
N      -2.18519573     -0.17724160     -0.13935115
H       1.09810811     -1.18427749     -1.21420216
H       2.23224995     -0.96657749      0.13047419
H       0.83195315     -2.04167408      0.31569454
H       0.47046278      0.12853414      1.47312254
H       0.40844960      2.01233586      0.08350882
