12
b3lypvtz=-132543.02435521537
C       1.81975995      0.50026393      0.10166186
C       0.81899454     -0.13129132      0.69057162
N      -0.54665351     -0.13702040      0.22123482
C      -0.97086831      0.90577147     -0.50046450
C      -1.23863909     -1.23520747      0.56013136
H       2.80696385      0.44769015      0.53738503
H       1.69680731      1.06019716     -0.81305142
H       0.94792867     -0.71521311      1.58945666
H      -0.39223302      1.80885256     -0.48996716
H      -1.96714973      0.87090038     -0.90600262
H      -2.26492873     -1.31473484      0.24637231
H      -0.70998192     -2.06020851      0.99930021
