9
b3lypvtz=-165201.89206601
C      -2.24269930      0.16129887      0.00006433
N      -1.13466966     -0.46044634      0.00011777
N       0.00785637      0.26549556      0.00000335
C       1.23013899     -0.35889415      0.00005488
O       2.27964809      0.23809536     -0.00005937
H      -2.32344567      1.25005065     -0.00006719
H      -3.14917367     -0.42794536      0.00015489
H      -0.01162066      1.28239544     -0.00011413
H       1.12501151     -1.45385703      0.00015547
