12
b3lypvtz=-132587.55406528
C       2.42029487      0.21322492      0.00001246
C       1.22366741     -0.37871458     -0.00000478
N       0.00000010      0.25919009     -0.00003114
C      -1.22366728     -0.37871446     -0.00000168
C      -2.42029469      0.21322516      0.00002080
H       2.53285594      1.28980001      0.00001209
H       3.31835687     -0.38351014      0.00002409
H       1.14442687     -1.45947359     -0.00000576
H       0.00000014      1.26714862     -0.00001457
H      -1.14442684     -1.45947348     -0.00000235
H      -3.31835675     -0.38350980      0.00003782
H      -2.53285564      1.28980027      0.00002203
