11
b3lypvtz=-165931.62746422
C       1.74036674     -0.71001998      0.09778164
O       1.19200428      0.55182507     -0.25387837
C      -0.09357416      0.75789133      0.23600553
N      -1.08350648     -0.09219965     -0.46177516
N      -2.05978906     -0.35136038      0.24690155
H       1.76152598     -0.84072574      1.18617887
H       2.75840392     -0.72932132     -0.28463479
H       1.17401895     -1.53202134     -0.34874966
H      -0.35986700      1.79088687      0.00315788
H      -0.16626308      0.59034283      1.31895183
H      -2.70863209     -0.91282869     -0.32495032
