11
b3lypvtz=-142667.65635193
C       2.41149642     -0.24694059      0.00100371
C       1.22596936      0.36237008     -0.00131661
N       0.01915819     -0.32627782      0.00957154
C      -1.05856806      0.35683152      0.00739271
N      -2.29092381     -0.21928683     -0.03963024
H       3.32762535      0.32523877     -0.00526290
H       2.47926098     -1.32615609      0.00811078
H       1.18121328      1.45524778     -0.01116563
H      -1.07678612      1.45282111      0.00972577
H      -3.09633328      0.32127614      0.21802861
H      -2.33970030     -1.21527307      0.10091027
