14
b3lypvtz=-133358.44503629
C       1.65060671      0.65118552      0.23894288
C       0.66138250     -0.12608800     -0.64079085
C      -0.70565074     -0.28349617     -0.02346068
C      -1.17813232     -1.46637819      0.38523240
N      -1.39226746      0.92107417      0.15797481
H       1.81116831      0.13320582      1.18531758
H       1.28084550      1.65060660      0.46739267
H       2.61485993      0.75149453     -0.26193351
H       0.55882478      0.38658545     -1.60492423
H       1.05957794     -1.11660585     -0.85918994
H      -2.15890211     -1.56624984      0.83303687
H      -0.57760728     -2.35913837      0.30111400
H      -1.25725868      1.60204897     -0.57442500
H      -2.36744708      0.82175537      0.39571302
