11
b3lypvtz=-121725.01081805
C      -2.26672910     -0.00044533     -0.18251312
C      -1.11569014     -0.00005948      0.16107576
C       0.25815678     -0.00007019      0.57363721
C       1.29947192      0.74825676     -0.23765805
C       1.29951814     -0.74799275     -0.23796009
H      -3.28341998     -0.00012068     -0.48584291
H       0.40592786     -0.00027932      1.64632924
H       2.07228779      1.26620649      0.31256697
H       0.95384419      1.25722697     -1.12541028
H       2.07236902     -1.26611164      0.31205652
H       0.95392452     -1.25662684     -1.12591724
