13
b3lypvtz=-122500.68204955
C      -2.13888408      0.27511662      0.00000001
C      -0.93612436     -0.62095704     -0.00000178
C       0.31435971     -0.20466640     -0.00000304
C       1.73859002     -0.53535812     -0.00000395
C       1.24850509      0.92348343     -0.00000213
H      -2.76646278      0.09212669     -0.87694563
H      -2.76646084      0.09212527      0.87694675
H      -1.85112927      1.32614714      0.00000055
H      -1.12490974     -1.69126380     -0.00000239
H       2.19136918     -0.91246235      0.90992223
H       2.19136888     -0.91245992     -0.90993126
H       1.38126540      1.49784349     -0.90981509
H       1.38126578      1.49784198      0.90981173
