10
b3lypvtz=-155112.31423570355
C      -1.37947883      0.35290672     -0.07453360
C      -0.14366226     -0.20767385      0.57666093
C       1.13698528     -0.24569715     -0.04993954
N       0.63787362     -1.38375679     -0.15946606
O       2.21960392      0.44964835     -0.37543741
H      -2.24616708     -0.27414506      0.14383823
H      -1.59269113      1.35684857      0.30124930
H      -1.26125260      0.41118521     -1.15643617
H      -0.19609419     -0.32769976      1.65577182
H       2.82488328     -0.13161624     -0.86170750
