12
b3lypvtz=-132574.29425672
C      -2.10248358      0.00007077      0.07360632
N      -0.95071997     -0.00026567     -0.44593389
C       0.18473512      0.00001951      0.40490322
C       1.40191118      0.74843343     -0.08619361
C       1.40208438     -0.74845683     -0.08575918
H      -2.27688519      0.00051015      1.15622089
H      -2.97716869     -0.00014673     -0.57135446
H      -0.00069765      0.00031013      1.47813542
H       1.29938334      1.25228310     -1.03607426
H       1.99438409      1.27037499      0.65204333
H       1.99471947     -1.26982489      0.65277333
H       1.29968950     -1.25292996     -1.03533112
