14
b3lypvtz=-133361.32723123
C       1.89201423      0.17196279     -0.38912621
C       0.83229847     -0.34716924      0.59390346
C      -0.58558836     -0.18638375      0.09269651
C      -1.11997767      1.22435311     -0.00130811
N      -1.23905555     -1.23181905     -0.21642131
H       2.89376507     -0.00980173      0.00198762
H       1.80984198     -0.33743296     -1.35048174
H       1.79877883      1.24467535     -0.56506018
H       0.99174284     -1.40780947      0.78328933
H       0.93690405      0.18160730      1.54692079
H      -2.14972597      1.23496326     -0.35742947
H      -1.08241052      1.71331172      0.97567148
H      -0.51400201      1.82941804     -0.67922029
H      -2.17597539     -0.99381737     -0.54586488
