8
b3lypvtz=-182698.65832996723
C      -1.21169133      0.13398226     -0.15042069
C      -0.09036068     -0.47759018      0.21747858
C       1.25235291      0.09437133      0.04610723
O       2.28598095     -0.40117539      0.35155991
F       1.22930276      1.32823241     -0.53215321
H      -1.19699473      1.11276218     -0.60860993
H      -2.17522757     -0.33382106     -0.00050076
H      -0.09336230     -1.45676154      0.67653885
