12
b3lypvtz=-155874.33915045
O       1.51651376      0.93407804     -0.60723175
C       0.49705397      0.50460875      0.27583790
C       0.21762418     -1.02056190      0.30281304
N      -0.96302026     -0.81308440     -0.57041955
C      -0.89084541      0.65691221     -0.37384542
H       2.37165415      0.74843722     -0.20746309
H       0.61139505      0.97268041      1.25685285
H      -0.00846707     -1.39444537      1.30708170
H       0.99565909     -1.64424250     -0.14386627
H      -1.81597110     -1.24691879     -0.24469826
H      -1.64046751      1.07175569      0.30673220
H      -0.89122886      1.23068062     -1.30169336
