12
b3lypvtz=-132585.08247489
C       1.86644557     -0.19893388      0.23335666
N       0.82295290     -0.46654992     -0.42637889
C      -0.40737866      0.12325818     -0.07908321
C      -0.57792488      1.44712299     -0.04060465
C      -1.51006435     -0.87404604      0.13105410
H       2.81584208     -0.62985596     -0.07568321
H       1.86477294      0.45381831      1.11240173
H      -1.55161500      1.87547997      0.14983144
H       0.23611644      2.12594696     -0.25378151
H      -1.61990466     -1.50481835     -0.75320084
H      -2.45672446     -0.37721949      0.33500480
H      -1.27540991     -1.53705678      0.96783458
