16
b3lypvtz=-134055.3209448212
C      -1.46874581     -0.89296996      0.51879613
C      -0.33130417      0.10559424      0.34314107
C      -0.61528505      1.16491056     -0.70467441
N       0.96340272     -0.64118788     -0.01971125
H       0.83085361     -1.06667511     -0.93546816
H       1.04282399     -1.42580555      0.62256746
C       2.33759709      0.01400607     -0.04626363
H      -1.22653355     -1.65061764      1.26814328
H      -2.37796832     -0.38747204      0.84561967
H      -1.69603615     -1.40202504     -0.42146896
H      -0.09362077      0.58267221      1.29462247
H      -1.46161947      1.78043419     -0.40009142
H       0.25179173      1.81087968     -0.83711115
H      -0.86358110      0.70925263     -1.66758352
H       2.27027461      0.80787519     -0.79708376
H       2.43795063      0.49112844      0.93656617
