11
b3lypvtz=-121713.56429851
C       1.08362369      0.66883266     -0.09932410
C       1.08349220     -0.66916741     -0.09877077
C      -0.34719995     -0.75998146      0.40286988
C      -1.26169082     -0.00012032     -0.53660461
C      -0.34705139      0.76034570      0.40223316
H       1.76562546      1.41739153     -0.47915551
H       1.76534959     -1.41817419     -0.47798373
H      -0.72929465     -1.39680493      1.18640036
H      -1.05196448     -0.00058741     -1.59960803
H      -2.31556811      0.00009122     -0.27661452
H      -0.72902955      1.39789161      1.18523187
