16
b3lypvtz=-134121.47225937
C       2.07540471     -0.04266508      0.09367067
C       0.73711843     -0.69741264     -0.24927858
C      -0.48635461      0.02207539      0.32769762
C      -1.77431022     -0.72539379     -0.00527846
N      -0.57531983      1.38038924     -0.22847371
H       2.90924945     -0.63768218     -0.28185138
H       2.20354805      0.05771707      1.17458444
H       2.16526838      0.94976941     -0.35166540
H       0.62128971     -0.75138736     -1.33542162
H       0.73471922     -1.72536439      0.12427777
H      -0.37569243      0.03318179      1.42459451
H      -2.64262730     -0.22831465      0.43395575
H      -1.74583186     -1.74545199      0.38062436
H      -1.92054829     -0.76507998     -1.08620712
H       0.20145728      1.94951813      0.08558002
H      -1.41700669      1.83861404      0.10178812
