8
b3lypvtz=-177635.56542154
C       0.43835250     -0.22603281     -0.10155564
C      -0.68347917      0.50227950      0.04918752
O      -1.89843080      0.04959864      0.36470134
N       1.58794682      0.49410393     -0.43624886
O       2.59716671     -0.18043099     -0.56965022
H       0.50142018     -1.30476355      0.01748403
H      -0.65759635      1.57510823     -0.08792932
H      -1.88537988     -0.90986296      0.47926862
