9
b3lypvtz=-144279.72680983
C       2.04307069      0.39940186     -0.77113318
C       1.01723801     -0.21174276     -0.60726833
C      -0.21572577     -0.87573629     -0.40033161
C      -1.32234780     -0.20788797     -0.03567305
O      -1.40571241      1.11871036      0.17258228
H       2.95926655      0.91338842     -0.92202702
H      -0.27203022     -1.94620325     -0.53817301
H      -2.26891515     -0.70444703      0.12498796
H      -0.53484390      1.51441666      0.01603596
