16
b3lypvtz=-134116.65017537
C       2.45779774     -0.37127594     -0.03471991
C       1.22389908      0.51906909      0.02615388
N      -0.00000009     -0.26852826     -0.05885458
C      -1.22389916      0.51906929      0.02615385
C      -2.45779789     -0.37127562     -0.03471959
H       3.37054559      0.22586134     -0.00884140
H       2.45632428     -0.96633974     -0.94851521
H       2.48898472     -1.05850047      0.81467282
H       1.23107138      1.21358326     -0.81916396
H       1.26159046      1.14192392      0.93644166
H      -0.00000020     -0.97404460      0.67034066
H      -1.23107155      1.21358327     -0.81916416
H      -1.26159025      1.14192431      0.93644150
H      -2.45632465     -0.96633952     -0.94851482
H      -3.37054571      0.22586170     -0.00884097
H      -2.48898475     -1.05850005      0.81467323
