11
b3lypvtz=-165992.26400588
N      -1.82462533      0.18814627     -0.08824337
C      -0.71269496     -0.74270786      0.12549065
C       0.66776589     -0.08736283      0.02827428
N       0.65249329      1.26592787      0.05712558
O       1.67802102     -0.76269302     -0.04944605
H      -2.04055216      0.27438907     -1.07368872
H      -2.66464316     -0.13652145      0.37159249
H      -0.78171961     -1.14672732      1.13730975
H      -0.69642456     -1.60075313     -0.55215934
H       1.52286074      1.76758436      0.05183232
H      -0.22916318      1.73990904      0.16356642
