14
b3lypvtz=-133351.82388263
C      -2.51641924     -0.24504025     -0.03587036
C      -1.14857100      0.33021208     -0.23834795
C      -0.04610270     -0.06583464      0.38876946
C       1.31494358      0.52736516      0.18317458
N       2.27983565     -0.51756528     -0.18460567
H      -3.21567877      0.51619869      0.32221117
H      -2.92734625     -0.62775384     -0.97447040
H      -2.50440373     -1.06078158      0.68764742
H      -1.07298823      1.14318575     -0.95749172
H      -0.09335141     -0.88557945      1.10101880
H       1.66256015      0.96419286      1.12532689
H       1.24516057      1.35128118     -0.54106770
H       3.21595809     -0.13461365     -0.24083297
H       2.05535028     -0.89091502     -1.09967654
