11
b3lypvtz=-142662.10000654
C      -1.69456385     -0.65132565      0.00001312
C      -0.41616999      0.14206978     -0.00005042
N      -0.31127531      1.40715038     -0.00006124
C       0.85969750     -0.66037365     -0.00006743
N       2.02634424     -0.17457865      0.00009808
H      -2.56932589     -0.00279850      0.00005652
H      -1.73908061     -1.30271063     -0.87671050
H      -1.73899430     -1.30270793      0.87674343
H      -1.22258124      1.86332143     -0.00001480
H       0.74669477     -1.74609222      0.00002033
H       1.95542868      0.84944664      0.00010090
