7
b3lypvtz=-185262.52153463
N       0.76509889      0.02552502     -0.02806363
N       0.25293314      0.30692307      1.04150845
O      -1.15143714      0.26331914      0.87585718
N      -1.70531287      0.59469648      2.13482165
N      -2.91919097      0.56693459      2.02896256
H       1.77520202      0.06995803      0.14063126
H      -3.27309308      0.81184367      2.95928253
