13
b3lypvtz=-143407.8727083
C       2.43626342     -0.28614146      0.04348333
C       1.11052252      0.40154882      0.06900080
N       0.03142908     -0.23117298     -0.16104338
N      -1.14903874      0.46098814     -0.20425516
C      -2.31247499     -0.34448800      0.12655599
H       3.08818783      0.14282744     -0.72331471
H       2.95699341     -0.17570737      0.99888076
H       2.30335191     -1.34632201     -0.16455107
H       1.09800482      1.47869363      0.27851632
H      -1.12071888      1.34829897      0.29336968
H      -2.34319530     -1.20594944     -0.53841550
H      -3.20838109      0.25394904     -0.03930662
H      -2.31617499     -0.70836578      1.16177955
