7
b3lypvtz=-164423.45752751
C      -0.34054265      0.68865928     -0.40311560
C      -0.50895973     -0.51626621      0.19139190
O       0.64979056     -1.15738502      0.22626181
N       1.61185458     -0.25461222     -0.40771318
N       0.99140158      0.77011259     -0.74108694
H      -1.03639879      1.47936436     -0.61138536
H      -1.36714555     -1.00987278      0.61279337
