12
b3lypvtz=-155884.71656955
C       2.13480887     -0.17512723      0.00000259
O       0.74112569     -0.41011485     -0.00001201
C      -0.02583490      0.76585437      0.00000457
C      -1.49364710      0.42927977     -0.00000216
N      -2.00830218     -0.72306876      0.00001039
H       2.44729819      0.38307124     -0.89056247
H       2.44728539      0.38303621      0.89059413
H       2.62510072     -1.14646637     -0.00001305
H       0.19682234      1.38674275      0.88236504
H       0.19683349      1.38677473     -0.88233016
H      -2.15556057      1.29914780      0.00002034
H      -1.26881694     -1.42994267      0.00000279
