14
b3lypvtz=-133335.94262813
C      -1.92421325     -0.45607139     -0.09995489
C      -0.57574911     -0.04140635      0.42725928
C       0.09633585      1.22153202      0.01784319
N       0.55280343     -0.06709068     -0.49410390
C       1.81906704     -0.55669605      0.02755603
H      -2.02502807     -1.54364913     -0.10407492
H      -2.72636680     -0.04585229      0.51772758
H      -2.05963991     -0.10192022     -1.12181823
H      -0.36090639     -0.36483952      1.44426430
H       0.71660097      1.72367650      0.75470919
H      -0.37295393      1.87798263     -0.70578427
H       2.63829171     -0.14066428     -0.56113788
H       1.98565026     -0.29372739      1.08327416
H       1.85236018     -1.64347885     -0.06464165
