14
b3lypvtz=-133275.28571750782
C      -1.14613458     -0.91860030     -0.46966508
N      -0.24958367      0.28803921     -0.33479727
C      -0.81388298      1.55636561      0.29908306
C       0.97272094     -0.01732507      0.40070004
C       2.12895822     -0.27980144     -0.18496525
H      -2.03350230     -0.60344021     -1.01300021
H      -0.63719023     -1.73534113     -0.98599219
H      -1.42966382     -1.22726329      0.53297103
H       0.03093647      0.56240144     -1.27269997
H      -1.31774186      1.20929880      1.20886256
H      -1.57829036      1.90846085     -0.40378957
H       0.81623413      0.00357294      1.46809616
H       2.24493312     -0.27804695     -1.26180186
H       3.01220692     -0.46832045      0.40697186
