10
b3lypvtz=-178416.0974794821
C      -0.97609654     -0.30447322      0.07049567
N       0.14430520     -0.20775585     -0.87204032
C       1.42389303     -0.00779643     -0.57539620
O       1.52359247      0.10242186      0.77842427
O      -1.33658458      0.92953694      0.64085286
H      -0.70902305     -1.03333905      0.83710970
H      -1.84412558     -0.66207121     -0.47896171
H      -0.06713225     -0.23949247     -1.85519604
H       2.45637474      0.22339698      0.97166372
H      -0.61520343      1.19957247      1.21979249
