15
b3lypvtz=-144177.46054293
C       0.72788599      1.39843062     -0.66920662
N       0.23059482      0.35727663      0.21553817
C       1.16603020     -0.75138964      0.30307170
C      -1.12067461     -0.06927955     -0.16419867
N      -1.83255937     -0.85215312      0.82241777
H       0.03546134      2.24119199     -0.67712112
H       0.86177806      1.05754213     -1.71103700
H       1.69349975      1.75805127     -0.31135650
H       2.13209945     -0.39265768      0.65972913
H       0.80756413     -1.49389596      1.01560776
H       1.32656402     -1.25441496     -0.66767379
H      -1.10823776     -0.64942968     -1.10245820
H      -1.69232010      0.84041408     -0.35716817
H      -1.45047964     -1.78402886      0.91326922
H      -1.77720627     -0.40565726      1.73058632
