9
b3lypvtz=-198519.205154
C       2.05639568     -0.00000158      0.17084485
C       0.88244572      0.00000074     -0.44158630
C      -0.40993870     -0.00000046      0.29852935
F      -1.15480852     -1.09811246     -0.04782247
F      -1.15480650      1.09811525     -0.04781539
H       2.13099500     -0.00000471      1.25184441
H       2.98577650     -0.00000048     -0.38197649
H       0.79543469      0.00000375     -1.52198195
H      -0.29174586     -0.00000404      1.38375097
