11
b3lypvtz=-165977.42381471
C       1.85462773     -0.12159098      0.01186164
O       0.56215399     -0.71220596     -0.00527039
C      -0.51291878      0.13163300     -0.00373817
N      -0.53238262      1.40100004      0.01189912
N      -1.66564453     -0.61639163     -0.06270088
H       2.02562126      0.48345890     -0.88146887
H       2.56028227     -0.94783849      0.02693632
H       1.99800929      0.49454340      0.90261124
H       0.39038557      1.81549908     -0.01412973
H      -1.60472866     -1.55178444      0.30240805
H      -2.49788852     -0.10593593      0.17835567
