10
b3lypvtz=-155092.7198131247
C       0.24816435     -0.81464342      0.24749685
C      -0.68898977      0.30998240     -0.19511017
C       0.35550249      1.02752958     -0.63916516
N       1.31295776      0.05013811     -0.26892622
O      -2.03716124      0.49830616     -0.15164328
H       0.13591782     -1.75990214     -0.28926101
H       0.29504239     -0.99164752      1.32485910
H       0.52471007      1.98238967     -1.10959020
H       2.30449770     -0.03385536     -0.32703737
H      -2.45064160     -0.26829747      0.25363549
