13
b3lypvtz=-143418.36599075
C       2.22687529     -0.14563048     -0.20727897
N       0.85203596     -0.36968573      0.21500371
C      -0.01699412      0.74667457      0.07290801
C      -1.33881319      0.58614742     -0.04632354
N      -1.98484602     -0.64941336      0.00270884
H       2.25694591      0.02450249     -1.28461661
H       2.70342732      0.71770582      0.28126287
H       2.82456149     -1.03157395      0.00779251
H       0.82187605     -0.74597781      1.15551665
H       0.41301125      1.74387335      0.08280381
H      -1.98472289      1.45117002     -0.11557043
H      -2.83611190     -0.69539721     -0.53612301
H      -1.35845915     -1.41387613     -0.21789384
