10
b3lypvtz=-152703.63353407
C       2.34021403     -0.19551885      0.00000122
C       1.14982343      0.40138331      0.00001086
N      -0.06641803     -0.25620712      0.00000383
N      -1.21066013      0.43006637      0.00000823
N      -2.22489081     -0.30113264      0.00000624
H       2.44888012     -1.27203671      0.00001931
H       3.24011930      0.39856136     -0.00002377
H       1.03812447      1.47692657      0.00002697
H      -0.13539135     -1.27018759      0.00000003
H      -3.02381304      0.33456930      0.00001808
