13
b3lypvtz=-145829.91871539
C       1.57325899     -0.88675989     -0.24501549
C       0.59335158     -0.05241643      0.10123476
O       0.71975267      1.31194115      0.09617664
C      -0.77921657     -0.46528252      0.54134747
C      -1.88955850      0.01295744     -0.40385826
H       1.41878993     -1.95427346     -0.22112829
H       2.54735730     -0.52892200     -0.55565576
H       1.60334648      1.54875872     -0.20622116
H      -0.80297536     -1.55105563      0.63242486
H      -0.95461235     -0.05292466      1.53953951
H      -1.87797245      1.09780264     -0.50148328
H      -1.76634519     -0.41825875     -1.39850284
H      -2.86816754     -0.28444361     -0.02480014
