12
b3lypvtz=-132565.24893355
C      -0.91015857     -1.27810981      0.02096120
C      -0.10474493      0.00000010      0.06257641
C      -0.91016363      1.27810716      0.02097215
C       1.27035193      0.00000053      0.52181449
N       1.23042824      0.00000680     -0.72827182
H      -1.56431625     -1.35601973      0.89371113
H      -1.54582245     -1.30388087     -0.86821573
H      -0.26298562     -2.15402738      0.00144776
H      -1.54579414      1.30390218     -0.86822803
H      -1.56435465      1.35598537      0.89369982
H      -0.26299564      2.15402955      0.00151060
H       2.01807070     -0.00000190      1.30614502
