11
b3lypvtz=-163524.90283511
C      -1.92874777     -0.10802485     -0.13718194
N      -0.78623505      0.46403934      0.55608591
N       0.37771120     -0.23646284      0.36443632
N       1.39106507      0.47598790      0.40966982
N       2.55776613     -0.23947259      0.21909550
H      -2.82776248      0.41089676      0.19301448
H      -1.86057506     -0.04038399     -1.22943603
H      -2.01645654     -1.15778995      0.13762057
H      -0.65444659      1.46177195      0.41227307
H       2.44913093     -1.22575970      0.44135378
H       3.29855016      0.19519797      0.74952607
