12
b3lypvtz=-153477.00215093
C      -2.31952606      0.28453236      0.16989154
N      -1.13381256     -0.44750302     -0.24419897
C       0.10011864      0.17279176     -0.16900044
N       1.16030847     -0.46176622      0.12567224
N       2.38096147      0.20961612     -0.04288480
H      -2.34166695      1.25275887     -0.33231950
H      -3.20870069     -0.26486790     -0.13683995
H      -2.37664338      0.46292816      1.25143916
H      -1.09460055     -1.40646156      0.07156750
H       0.09124759      1.23350075     -0.44173579
H       2.30052906      1.21095668      0.13184207
H       3.03411595     -0.17949099      0.62324893
