10
b3lypvtz=-152714.0011954
N      -2.09838914      1.05953814     -0.29899523
C      -1.61535193     -0.10853989     -0.17158124
C      -0.20817960     -0.48404032      0.04933568
N       0.70463220      0.40972428      0.09855643
N       1.97339206      0.04967730      0.36798217
H      -1.34904502      1.75261505     -0.22175792
H      -2.30637609     -0.95156454     -0.22964239
H       0.02180370     -1.54691875      0.17219441
H       2.64240154      0.73315175      0.05419914
H       2.23501228     -0.91354302      0.17970894
