10
b3lypvtz=-155153.72388081
C       1.93555208      0.10859860     -0.11846382
C       0.84612016     -0.59784463      0.16207487
C      -0.56418528     -0.12923864      0.02442246
N      -0.77112104      1.22393459      0.04048338
O      -1.47314641     -0.92624872     -0.12789970
H       1.88795077      1.13133595     -0.47157523
H       2.92288283     -0.32567565     -0.03352690
H       0.91750820     -1.63626231      0.45975345
H      -0.08737067      1.84184977      0.43934027
H      -1.72987064      1.53015004      0.03817823
