11
b3lypvtz=-165945.89664687
C       1.86560147     -0.62532993      0.00617560
O       1.24700012      0.66373799      0.00305886
C      -0.10078610      0.67797194     -0.00728577
N      -0.80926200     -0.36800242     -0.00384505
N      -2.19803330     -0.20853672     -0.09685447
H       2.93604123     -0.43837320      0.00473203
H       1.57488092     -1.19493585     -0.87722305
H       1.57775927     -1.18986527      0.89412985
H      -0.48136140      1.69980432     -0.02536010
H      -2.62588410     -1.01253443      0.34013417
H      -2.52833112      0.63103958      0.37429094
