11
b3lypvtz=-165981.43717077
C      -1.43728975     -0.55533004     -0.30615867
N      -0.40633219      0.46467416     -0.42644200
C       0.92011631      0.23891005     -0.16824980
N       1.86705919      1.07831515     -0.02042915
O       1.19499920     -1.08892651     -0.10686937
H      -1.15887604     -1.43562358     -0.88004687
H      -2.36374814     -0.15821601     -0.71818753
H      -1.61757812     -0.86240076      0.72865053
H      -0.69854764      1.41753941     -0.30027681
H       1.55095865      2.03990920     -0.08833640
H       2.14923853     -1.13885106      0.03685575
