10
b3lypvtz=-183422.82696613
F      -1.95195487      0.42450431      0.03756287
C      -0.93435069     -0.47988732     -0.26418473
C       0.31895014     -0.08564359      0.46455562
C       1.32711556      0.76448198     -0.16868537
O       1.52120712     -0.65121846     -0.06241173
H      -1.27089750     -1.47282242      0.04147788
H      -0.76618702     -0.47171401     -1.34236650
H       0.24958146     -0.09001896      1.54889273
H       1.15695012      1.13423986     -1.17466142
H       1.98275967      1.36707060      0.45030964
