11
b3lypvtz=-170968.40721867
C       1.73435799     -0.63542655      0.18893019
C       0.57676080     -0.03503911     -0.07319421
F       0.51746122      1.31479582     -0.12035539
N      -0.64221098     -0.59449320     -0.38455247
C      -1.85907878     -0.05904131      0.22481658
H       1.78540841     -1.70828724      0.28846372
H       2.63923345     -0.05618869      0.27152108
H      -0.59893635     -1.60174889     -0.38810943
H      -1.93331285      1.00459978      0.01369026
H      -2.71841451     -0.55391148     -0.22420008
H      -1.89609741     -0.20212911      1.31135274
