9
b3lypvtz=-162778.65119303
C      -0.42976699     -1.32082918      0.06246432
N      -0.10829055     -2.19996982      0.91239665
N       0.22431865     -0.07670839     -0.05481096
N      -0.27929764      0.62761142     -0.96570945
N       0.32588058      1.78773288     -1.14114694
H      -1.25092049     -1.49611681     -0.63395721
H       0.67782118     -1.86473294      1.47401115
H       1.00566665      2.09184129     -0.45299066
H      -0.16541140      2.45117154     -1.71216118
