13
b3lypvtz=-122508.8883298
C       2.64669301      0.22466405      0.00007934
C       1.22181399     -0.08009899      0.00001091
C       0.04807027     -0.33929968      0.00008591
C      -1.38313547     -0.63200784      0.00019443
C      -2.26279850      0.62729153     -0.00016675
H       3.24422768     -0.68636231     -0.07415500
H       2.91399059      0.86602769     -0.84231181
H       2.94083103      0.74038909      0.91655261
H      -1.62417367     -1.24514521     -0.87317665
H      -1.62412468     -1.24455783      0.87399010
H      -2.06632861      1.23798753      0.88101338
H      -2.06651558      1.23741390     -0.88178658
H      -3.31905808      0.35423807      0.00002612
