10
b3lypvtz=-131810.78964953
C      -2.17599233     -0.48005476      0.00065258
C      -1.18445556      0.20690465     -0.00084577
C      -0.00555946      0.98620363      0.00395163
C       1.23026990      0.44210381      0.00939759
N       1.51770995     -0.89472172     -0.05241886
H      -3.06008996     -1.06625696     -0.00332159
H      -0.09816330      2.06294316     -0.00329792
H       2.09645911      1.09103064      0.01924424
H       0.75648923     -1.53563097      0.10850152
H       2.41304242     -1.20069048      0.28450259
