12
b3lypvtz=-155896.20403409
N      -1.31022570     -0.86119525      0.17365107
C      -1.18977762      0.56179805     -0.21760336
C       0.17823446      1.10614573      0.09288014
C       1.30344073      0.38384488      0.08281422
O       1.40458562     -0.94128580     -0.16466454
H      -2.15750921     -1.26832936     -0.20291633
H      -1.35954896     -0.94206991      1.18334452
H      -1.95358530      1.19044578      0.25511114
H      -1.38162118      0.60719279     -1.29570081
H       0.26159110      2.16319911      0.30483367
H       2.26603250      0.83714555      0.28796099
H       0.48412754     -1.28560057     -0.20260571
