12
b3lypvtz=-155887.37392785
C       1.74197272     -0.88107585      0.50192774
N       0.64323081     -0.81764408     -0.11084164
C       0.17710653      0.47007358     -0.59982082
C      -1.28889361      0.64635559     -0.21017566
O      -2.09592633     -0.39087279     -0.73628259
H       2.38309078     -0.00930231      0.68160929
H       2.09178566     -1.83996590      0.87796371
H       0.78243307      1.30914200     -0.22897648
H       0.23986372      0.44998498     -1.69123984
H      -1.66856307      1.58494852     -0.61637660
H      -1.37062526      0.69609869      0.88364224
H      -1.63547503     -1.21764244     -0.54552934
