13
b3lypvtz=-143404.19138632
N       1.72586772     -0.11020342     -0.31107796
C       0.54545548      0.00425150      0.52811643
C      -0.53814409     -1.04542639      0.18340300
N      -1.28550935      0.00114429     -0.55553539
C      -0.53387413      1.06527385      0.15003991
H       2.35314511      0.67108130     -0.15735143
H       1.46229298     -0.09189675     -1.29059218
H       0.86558183      0.02444882      1.56845921
H      -1.04809907     -1.42795427      1.07433911
H      -0.20686044     -1.88807637     -0.42648759
H      -2.28819443      0.00659669     -0.42075456
H      -1.04248967      1.47392311      1.03161779
H      -0.20657492      1.89146963     -0.48647333
