9
b3lypvtz=-165210.26274119
N      -1.99661209     -0.06805197     -0.00001954
C      -0.85665932     -0.61152184      0.00006333
C       0.47205183      0.08948837      0.00001119
N       0.71869922      1.32905397      0.00000169
O       1.47530995     -0.81514692     -0.00002310
H      -1.93004378      0.95399449     -0.00013047
H      -0.79417593     -1.69863027      0.00016796
H      -0.12704090      1.89341340      0.00004289
H       2.30641903     -0.31826523     -0.00005294
