15
b3lypvtz=-144189.70051683
C       1.82549174     -0.28636006      0.03007406
C       0.50669500     -0.09739445     -0.71550192
C      -0.65050325      0.38272583      0.17386912
N      -1.83835099      0.55684022     -0.65821529
N      -1.04219835     -0.52134794      1.25141040
H       1.74074054     -1.04742494      0.80831529
H       2.15169491      0.64178640      0.50561736
H       2.61786337     -0.60407256     -0.64870657
H       0.19826449     -1.03136963     -1.19354626
H       0.65033124      0.63097252     -1.52092074
H      -0.33067009      1.31401381      0.66768402
H      -2.59895842      0.91011329     -0.08969927
H      -1.66790927      1.22187052     -1.40286395
H      -1.26713036     -1.43397073      0.86807862
H      -0.29536055     -0.63638230      1.92440511
