14
b3lypvtz=-161668.4845681
C      -2.08271694     -0.65078687     -0.16926786
C      -1.32172987      0.60517212      0.26269375
C       0.11835255      0.69132381     -0.25953700
C       1.03808147     -0.36541446      0.31923439
F       2.34007501     -0.16976357     -0.15159344
H      -2.09843467     -0.74437385     -1.25749581
H      -1.63709437     -1.56154621      0.23385958
H      -3.11758337     -0.61667048      0.17452378
H      -1.31616383      0.67289597      1.35513979
H      -1.86359308      1.48622388     -0.08853448
H       0.53796485      1.67016579     -0.01557854
H       0.12599761      0.60623100     -1.34975975
H       1.07346998     -0.30591674      1.41043139
H       0.74280267     -1.37575038      0.03126820
