10
b3lypvtz=-155106.62682869
C      -1.97478640     -0.02125298      0.11429921
C      -0.70264051      0.20525552      0.44480659
C       0.41185397     -0.08473953     -0.43417028
N       1.60357552      0.15986977     -0.04741846
O       2.53673800     -0.18549156     -1.02899666
H      -2.24485868     -0.44143978     -0.84686172
H      -2.78383372      0.20631118      0.79392871
H      -0.44674450      0.62644769      1.40995572
H       0.22438005     -0.50989056     -1.41984691
H       3.37621628      0.04493025     -0.61789619
