8
b3lypvtz=-236901.85398223
C       0.77325560      0.06081293      0.00378069
C      -0.72924901     -0.11879961      0.00245961
F      -1.07536358     -0.81227495     -1.12349301
F      -1.35110623      1.09093009     -0.04526302
F       1.16146327      0.62646946      1.20516597
H       1.25727200     -0.91071614     -0.10450306
H       1.06287598      0.72078254     -0.81525370
H      -1.09914801     -0.65720431      0.87710650
