10
b3lypvtz=-155114.1591135568
C       0.33506101     -0.69366988     -0.13357878
C      -1.03705764     -0.12386463      0.22428972
O      -0.82039908      1.33548289      0.29555425
C       0.44212484      1.67934985      0.03922347
N       1.11365047      0.55856938     -0.20504749
H       0.73167043     -1.36099566      0.63212290
H       0.34217847     -1.21691343     -1.09019921
H      -1.40482799     -0.44906870      1.19473187
H      -1.79609061     -0.30668491     -0.53276553
H       2.09369007      0.57779508     -0.42433120
