8
b3lypvtz=-151969.5822825794
C       0.00848011      0.76258933      0.00505321
N      -1.05639255     -0.07050335      0.02443080
N      -0.67323007     -1.35999105      0.00648910
N       0.62380946     -1.36992652     -0.02403729
C       1.08286369     -0.08745839     -0.02616012
H      -0.08240806      1.83328499      0.01458226
H      -2.03701650      0.15387785      0.04913357
H       2.13389391      0.13812714     -0.04949153
