14
b3lypvtz=-133354.94254196
C      -2.28066593      0.49404877     -0.17356405
C      -1.24447354     -0.60151197      0.10837017
C       0.12366280     -0.04236120      0.36019255
N       1.12484721     -0.33792076     -0.34864878
C       2.40322642      0.26299569     -0.02503019
H      -3.27324505      0.06303976     -0.30840283
H      -2.02709300      1.04707533     -1.07910087
H      -2.33842407      1.20898355      0.64990664
H      -1.18189803     -1.30204279     -0.72433262
H      -1.55590431     -1.16742680      0.99332482
H       0.20870716      0.66133763      1.20500488
H       3.12835423     -0.52641484      0.18393068
H       2.36504439      0.94661255      0.83441797
H       2.77361574      0.80940209     -0.89492838
