14
b3lypvtz=-133356.80005158
C       1.13978028     -1.26707328      0.03023888
C       0.34491298      0.00000138     -0.31813249
C       1.13979803      1.26706479      0.03023844
C      -0.97986738      0.00000653      0.40517663
N      -2.14673864     -0.00000155     -0.08560648
H       2.09935100     -1.27275743     -0.48946675
H       0.59493674     -2.16901901     -0.25117413
H       1.34262278     -1.31772091      1.10254958
H       0.13659888      0.00000266     -1.39293285
H       1.34264103      1.31771017      1.10254916
H       0.59496743      2.16901820     -0.25117515
H       2.09936895      1.27273533     -0.48946698
H      -0.90436749     -0.00000459      1.49826140
H      -2.10784860      0.00000172     -1.10857025
