8
b3lypvtz=-182680.62513213
O       2.24617784     -0.12671547     -0.00002275
C       1.05432821     -0.33882798      0.00000751
C       0.05238620      0.73396944      0.00001413
C      -1.26207588      0.53382845      0.00004860
F      -1.80747063     -0.68802805      0.00007597
H       0.65946420     -1.36988698      0.00003786
H       0.41498346      1.75287537     -0.00001011
H      -2.01331440      1.31276722      0.00004979
