6
b3lypvtz=-207827.90275901
N       2.15356250      0.00026369     -0.11549200
C       1.01994705      0.00016961      0.06716744
C      -0.42743494     -0.00004216      0.36428837
F      -1.00291411     -1.10045527     -0.17774288
F      -1.00325564      1.10017999     -0.17776794
H      -0.60835586     -0.00005785      1.44045302
