8
b3lypvtz=-180259.00642134
C      -2.24038939     -0.21072695      0.00022426
N      -1.16945272      0.46928509      0.00010889
N      -0.01987991     -0.34699317      0.00011945
C       1.02391458      0.35328548     -0.00003265
F       2.20976032     -0.24197616     -0.00005145
H      -2.24305803     -1.29934615     -0.00008300
H      -3.17903715      0.33072932     -0.00008989
H       1.08161329      1.43727755     -0.00003161
