15
b3lypvtz=-144127.5656080379
C      -1.01342147      1.11746805      0.32634648
C      -0.64416704     -0.37970291      0.26538302
C       0.70505956     -0.81082374      0.81423406
N       1.73496102     -0.09844410     -0.08983548
H       1.32813215     -0.24249668     -1.02629155
H       1.89878152      0.91518482      0.02194988
H       2.62877884     -0.57045875     -0.03611358
N      -0.66181121     -0.79176719     -1.16210057
H      -1.02098663      1.45617418      1.36299770
H      -2.00491567      1.31599457     -0.09465822
H      -0.30609862      1.73849841     -0.23220752
H      -1.39745394     -0.91626961      0.85654746
H       0.85760890     -0.40971017      1.82066027
H      -0.58225650     -1.80215900     -1.20184065
H      -1.52221091     -0.52148786     -1.62507127
