13
b3lypvtz=-145828.38465553
C      -1.38359108     -0.56161956     -0.58259012
C      -0.03631325     -0.08913229     -0.11092143
C      -0.03830797      0.83290850      1.07677062
C       1.06991375     -0.48932228     -0.73922961
O       2.36728482     -0.16496549     -0.45339804
H      -2.02310639      0.27985292     -0.86844526
H      -1.29960033     -1.22429153     -1.44423376
H      -1.91420445     -1.10418918      0.20660335
H      -0.61502760      1.73898600      0.86772589
H       0.95699608      1.15517628      1.39042545
H      -0.50549213      0.35466172      1.94295141
H       1.02793750     -1.15430248     -1.59187950
H       2.39341106      0.42633741      0.30632101
