11
b3lypvtz=-145010.36356892
C      -1.08773693     -0.21658266     -0.25488362
C      -0.06687081     -0.26787677      0.90328024
C       1.08782355     -0.31119881     -0.12183318
C       0.06680253      0.76726158     -0.54676604
O      -0.00023060      1.21753027      0.86913662
H      -1.18448641     -1.09595493     -0.89166296
H      -2.04135679      0.24588125     -0.01260483
H      -0.14704906     -0.74302090      1.87790043
H       1.18484573     -1.19901542     -0.74673184
H       2.04131411      0.06828919      0.23709725
H       0.14704467      1.53458719     -1.31283208
