13
b3lypvtz=-122499.32713737
C      -1.86070573     -0.68502629      0.07092680
C      -0.76404308      0.03040056     -0.06517697
C      -0.06972246      1.30067178      0.16653622
C       0.63154664      0.10527767     -0.50185969
C       1.72389974     -0.65039778      0.22340448
H      -1.91289647     -1.71030608     -0.27584269
H      -2.75052627     -0.27411280      0.53281273
H      -0.31965140      2.15707411     -0.44914943
H       0.22369645      1.55156187      1.18027803
H       0.79097618      0.21340435     -1.57105740
H       2.69123895     -0.15859887      0.09970903
H       1.81439517     -1.67000967     -0.15667355
H       1.50854428     -0.71353885      1.29122944
