13
b3lypvtz=-169129.08776906
C      -2.29315514     -0.11514625     -0.18308266
C      -0.91026082     -0.27029185      0.41420884
O      -0.01088507      0.57539332     -0.30569391
C       1.30825590      0.54397676      0.16037761
O       1.96750956     -0.67776652     -0.08785808
H      -2.29425267     -0.41180376     -1.23236193
H      -2.62709771      0.92097013     -0.12058553
H      -3.00811274     -0.74212112      0.35208786
H      -0.57200136     -1.30823100      0.35458144
H      -0.90819283      0.02040941      1.47273882
H       1.34710720      0.67418805      1.24661544
H       1.81057620      1.37846536     -0.33476451
H       2.03944947     -0.78869954     -1.04221039
