16
b3lypvtz=-134052.87725977742
C      -2.37542701     -0.15600146      0.21935450
C      -1.06275662     -0.12560482     -0.56411198
C       0.13841041      0.08086733      0.35064597
N       1.43512386      0.12368079     -0.38182210
H       1.50404037     -0.74292468     -0.93564857
H       1.38921218      0.88056880     -1.05841096
C       2.61661846      0.46175000      0.54502659
H      -2.38280770     -0.97132582      0.94509772
H      -2.52944896      0.77604772      0.76579038
H      -3.22638889     -0.29647189     -0.44727771
H      -0.95049898     -1.05935398     -1.12384027
H      -1.09912855      0.67947299     -1.30537579
H       0.22585516     -0.72393185      1.08066899
H       0.09103196      1.01576100      0.90570390
H       2.75068686     -0.45018160      1.14212455
H       3.47547745      0.50764748     -0.13792523
