9
b3lypvtz=-141894.72058483
C       2.19171709     -0.12873155     -0.00046339
N       0.98052400     -0.47751540      0.00224795
C      -0.01710011      0.59656862      0.00106185
C      -1.38063745      0.06181458     -0.00048343
N      -2.46306260     -0.32447906     -0.00172571
H       2.53559867      0.91278130     -0.00404369
H       2.95698278     -0.90038015      0.00051204
H       0.09641947      1.23567166     -0.87976176
H       0.09455616      1.23503600      0.88256313
