12
b3lypvtz=-132581.04253124874
C       1.83663847     -0.05373101     -0.08555738
C       0.36360866      0.12983996     -0.15946021
N      -0.29364196      0.92857828     -0.92342482
C      -1.59077725      0.45792857     -0.34554340
C      -0.79228168     -0.50536952      0.57610797
H       2.20447608      0.16276419      0.92068233
H       2.10999470     -1.08799230     -0.30981752
H       2.33091892      0.60769016     -0.79595716
H      -2.14197583      1.25356546      0.15652876
H      -2.23559301     -0.01435835     -1.08723163
H      -0.94281013     -1.57265110      0.40624014
H      -0.84855698     -0.30626435      1.64743292
