13
b3lypvtz=-143409.91303025
C       1.96019287     -0.40580965      0.08625280
C       0.58518565     -0.05804957     -0.41840490
N      -0.01301027      1.19540633      0.08221267
C      -0.61900771     -0.09410069      0.43971522
N      -1.87346826     -0.42787269     -0.18107103
H       2.72489031      0.14462959     -0.46581687
H       2.06033472     -0.14624663      1.14008020
H       2.16320112     -1.47308068     -0.02978437
H       0.39611442     -0.29155057     -1.46148214
H      -0.58053223      1.61043037     -0.65112433
H      -0.48925715     -0.34327462      1.49144227
H      -1.96397112     -1.42916324     -0.30930456
H      -2.65232634     -0.12732594      0.39363604
