13
b3lypvtz=-145813.6172178
C       1.68280627      0.16069270      0.42509927
C       0.34466578     -0.51224333      0.23501778
C      -0.64070116      0.05981360     -0.80565542
C      -1.62113099      0.15057622      0.37455900
O      -0.58706044     -0.22152848      1.31474925
H       1.56433515      1.24233947      0.50507542
H       2.16407117     -0.20021866      1.33567602
H       2.34272644     -0.05854227     -0.41790126
H       0.47695737     -1.59620221      0.14139622
H      -0.92155363     -0.59908918     -1.62432673
H      -0.33632820      1.02515235     -1.20769109
H      -2.43052975     -0.58516367      0.35444913
H      -2.03825799      1.13441345      0.59750872
