14
b3lypvtz=-161670.03629235
C      -1.00738686     -1.26891509     -0.22241851
C      -0.52100531     -0.00000003      0.48473055
C      -1.00742834      1.26888979     -0.22243519
C       0.99124029      0.00002650      0.64479254
F       1.62239685      0.00002880     -0.60551120
H      -2.09562793     -1.27905932     -0.29795529
H      -0.70038350     -2.16751267      0.31656210
H      -0.59889114     -1.32819856     -1.23203541
H      -0.91901318      0.00000007      1.50676330
H      -0.59893664      1.32817237     -1.23205378
H      -0.70045253      2.16750475      0.31653226
H      -2.09566986      1.27899805     -0.29796968
H       1.33460135      0.89043978      1.17661487
H       1.33463081     -0.89036844      1.17662645
