10
b3lypvtz=-152693.1291196034
C       1.92318112     -0.24035726     -0.18288412
N       0.67951904     -0.20428479     -0.48040260
C      -0.25469616      0.20084134      0.40791933
N      -1.53763974      0.21226192      0.02646456
N      -2.13149628     -0.09883836     -1.07880137
H       2.63411090     -0.57270703     -0.93042042
H       2.31338438      0.04953193      0.79710093
H      -0.05204582      0.52415128      1.42357286
H      -2.18331787      0.52771458      0.74358862
H      -1.39099956     -0.39831362     -1.71780628
