14
b3lypvtz=-133351.50554707
C       0.48182819      1.45660557     -0.04168685
C       0.52341897      0.12800374     -0.02292465
C       1.81289682     -0.64248514      0.05360401
C      -0.71821866     -0.73086269     -0.07656224
N      -1.96422046      0.02675078      0.00748787
H       1.38943947      2.04524905     -0.00023645
H      -0.45706168      1.98633012     -0.11720341
H       2.67614883      0.02148497      0.04764629
H       1.90940889     -1.33299120     -0.78992942
H       1.85608492     -1.25179067      0.96132901
H      -0.62160160     -1.50702284      0.69998057
H      -0.71838220     -1.27174485     -1.02962480
H      -2.07856886      0.41425270      0.93698617
H      -2.75691063     -0.58007254     -0.15928410
