10
b3lypvtz=-155093.46877078
C       1.54623034     -0.82203958     -0.00000081
C       0.45756618     -0.04863637      0.00000002
C       0.40625375      1.44282087     -0.00000100
N      -0.77091262     -0.80532049      0.00000207
O      -1.77627293     -0.12729047      0.00000218
H       2.54659222     -0.41213262     -0.00000244
H       1.42857442     -1.89731106      0.00000041
H       1.40929981      1.86471731     -0.00000593
H      -0.13606400      1.80772595      0.87375567
H      -0.13607218      1.80772446     -0.87375315
