8
b3lypvtz=-151984.34292438
N       2.14863295     -0.10009414      0.00000897
C       0.99906806     -0.03675421     -0.00001660
C      -0.45080146      0.11113539      0.00000760
N      -1.03521832      1.24426883      0.00002340
N      -1.13097319     -1.06747478      0.00002786
H      -0.37078117      2.01012647      0.00001170
H      -0.65741167     -1.95027896     -0.00002486
H      -2.13543220     -1.03785359      0.00002893
