13
b3lypvtz=-169138.98470415
C       2.03065839      0.05057690      0.10489673
C       0.72755414     -0.65738238     -0.26200193
C      -0.51121978      0.00083110      0.32468132
O      -1.68821938     -0.74616842      0.09347427
O      -0.60995773      1.29699230     -0.23148127
H       2.88781439     -0.46076522     -0.33492603
H       2.02773354      1.08044180     -0.24961724
H       2.17690957      0.06799653      1.18734857
H       0.60685507     -0.68231562     -1.35008170
H       0.74253067     -1.69193643      0.08581427
H      -0.43958740      0.05474278      1.41618395
H      -1.77866397     -0.86492578     -0.85988854
H      -1.37294552      1.73082645      0.16525758
