10
b3lypvtz=-155146.41743661
O       1.85167371      0.03152303      0.00004630
C       0.65042297      0.01815906      0.00029377
C      -0.47690907      1.07675696      0.00036921
C      -1.45502538     -0.12944717     -0.00050838
N      -0.27183565     -0.99726841      0.00054154
H      -0.49892923      1.70043241      0.89126403
H      -0.49836624      1.70121742     -0.88997738
H      -2.07647592     -0.22205885      0.89072197
H      -2.07472130     -0.22177903     -0.89300360
H      -0.15952088     -1.99952242     -0.00148746
