12
b3lypvtz=-132589.53634889
C      -2.34476317     -0.11581608     -0.02614653
C      -0.86917155     -0.30348806      0.10482493
C       0.04777603      0.65099110     -0.05904687
C       1.50367563      0.45892403      0.07444174
N       2.18565675     -0.60487847     -0.06781740
H      -2.85720773     -0.38271732      0.90225776
H      -2.75128640     -0.77077127     -0.80226378
H      -2.60123160      0.91301169     -0.27797331
H      -0.53781226     -1.30483967      0.36915172
H      -0.27588233      1.66634537     -0.26979735
H       2.06312533      1.36370145      0.32348110
H       1.58649730     -1.38987178     -0.33483501
