11
b3lypvtz=-165894.1767198995
C      -0.82759403     -0.83396109     -0.10468890
N      -1.41550304      0.50921189     -0.01994860
H      -1.07764541      0.99151834      0.82914355
H      -2.43030172      0.50448632     -0.04024334
H      -1.04604835      1.10693966     -0.77754627
C       0.55386176     -0.75470072     -0.07137546
N       1.13448800      0.41779127      0.02443963
O       2.56836123      0.24320959      0.04091866
H      -1.48793274     -1.67245101     -0.17868698
H       1.15129384     -1.66178805     -0.12454161
H       2.87702048      1.14974380      0.11081777
