9
b3lypvtz=-188491.27735591
N      -0.76760064      0.39145868      0.38916944
C      -0.18225207     -0.36204291     -0.60953050
O      -1.01203462     -1.19659824     -1.28614973
N       1.05027419     -0.37561946     -0.93727435
O       1.73401728      0.66007219     -0.22387164
H      -0.12868763      1.06541807      0.78644705
H      -1.65755197      0.79625610      0.13724848
H      -1.66847894     -1.54008695     -0.66806040
H       2.63231441      0.56094254     -0.54907836
