8
b3lypvtz=-177655.9270121
C       2.08316484     -0.10563251     -0.00000082
N       0.87186576     -0.46624287      0.00000018
O       0.03699022      0.68868800     -0.00000050
C      -1.29727556      0.39931186     -0.00000010
O      -1.81024734     -0.67256406      0.00000053
H       2.40235070      0.93322680     -0.00000170
H       2.81517326     -0.90313931     -0.00000007
H      -1.81838688      1.36685308     -0.00000051
