12
b3lypvtz=-155880.85429267
N       1.42741732     -0.67004700     -0.15398691
C       0.66384615      0.39685930      0.45171483
C      -0.18971046      1.23619653     -0.47452971
C      -0.83069637      0.19466121      0.40138538
O      -1.31281055     -0.98637027     -0.16054114
H       2.18264177     -0.31707548     -0.72804343
H       1.82843930     -1.27890847      0.54868465
H       1.08395569      0.89524294      1.32033204
H      -0.13687252      1.00667096     -1.53071549
H      -0.31780309      2.28354765     -0.23686420
H      -1.43032116      0.51934110      1.24113104
H      -0.53285110     -1.43210847     -0.52890605
