11
b3lypvtz=-168359.79651423
C      -1.83681875      0.63547643      0.16724545
O      -1.18390671     -0.51239047     -0.34897831
C       0.07844255     -0.74470455      0.22945749
C       1.16515818      0.15538341     -0.33681284
O       2.23217008      0.33151201      0.18799369
H      -2.00843734      0.54103287      1.24577420
H      -2.79514671      0.71322460     -0.34159446
H      -1.26457347      1.55260510     -0.01497877
H       0.35610018     -1.77504274     -0.01346172
H       0.06520764     -0.65323079      1.32237004
H       0.90444337      0.62316212     -1.31038177
