12
b3lypvtz=-153491.0072776
C      -1.04331179     -0.45441475     -1.13452196
C      -0.14909609     -0.06421467      0.00178421
N      -0.30287981      1.21377535      0.52049423
N       0.74197837     -0.88855220      0.40828292
N       1.51783072     -0.39141794      1.49757491
H      -0.91734234      0.22516228     -1.98087952
H      -2.09442437     -0.41599472     -0.83468750
H      -0.80170117     -1.46425346     -1.45372049
H       0.00273588      1.28922805      1.48277671
H      -1.19652121      1.64648318      0.34989865
H       2.05457465      0.42113439      1.19382533
H       2.18815714     -1.11673551      1.71447252
