9
b3lypvtz=-165165.45142996823
C      -1.08251054     -0.75324565     -0.11625947
N      -0.26461008      0.26048008      0.13370765
N      -0.59521228      1.50026691      0.28689824
C       1.15671085     -0.14496745      0.23408345
O       2.00988319      0.64951224      0.45358007
H      -2.13559311     -0.55352662     -0.20613975
H      -0.66412323     -1.73725766     -0.22003828
H       0.27664425      2.00035885      0.46377382
H       1.29881096     -1.22162072      0.08528336
