14
b3lypvtz=-133352.25661316
C      -2.00760534     -0.00024840      0.12006692
N      -0.90533805     -0.00015078     -0.48968430
C       0.32656361      0.00004714      0.29482434
C       1.11960842     -1.26477994     -0.03784211
C       1.11917490      1.26515248     -0.03782403
H      -2.93571011     -0.00033306     -0.44809999
H      -2.09337184     -0.00013288      1.21482527
H       0.09488873     -0.00000132      1.37137784
H       0.55378138     -2.16017414      0.22206293
H       1.34219195     -1.30216999     -1.10512560
H       2.06038177     -1.28095028      0.51486995
H       1.34156316      1.30272827     -1.10514167
H       2.06003843      1.28154555      0.51472751
H       0.55312098      2.16034634      0.22227794
