13
b3lypvtz=-145842.47930898
C      -2.01716210     -0.02325551      0.00001966
C      -0.68012299     -0.75194451      0.00003094
C       0.52925839      0.16990067      0.00004059
C       1.88802810     -0.50093143      0.00004401
O       0.41712252      1.37456769      0.00002423
H      -2.84342772     -0.73487112      0.00000582
H      -2.11320178      0.61598901     -0.87694857
H      -2.11322336      0.61597926      0.87699271
H      -0.59099092     -1.41409739     -0.86834229
H      -0.59100841     -1.41410673      0.86839866
H       2.67242784      0.25169409      0.00002723
H       1.99534239     -1.14309010     -0.87729894
H       1.99535606     -1.14306593      0.87740297
