11
b3lypvtz=-142668.69235752148
C      -1.54554127     -0.05415269      0.66814148
C      -0.50537980     -0.47848313     -0.36099803
N       0.47994482      0.57699995     -0.57452062
C       1.68362839      0.53101594     -0.46002475
N       2.90914336      0.55258018     -0.50821617
H      -2.30825123     -0.82740383      0.77282085
H      -1.08605171      0.10838238      1.64373056
H      -2.03113553      0.87258614      0.36253456
H      -0.01970088     -1.40887175     -0.05436269
H      -0.99307500     -0.66402409     -1.32006052
H       3.41641885      0.79137089      0.33402832
