9
b3lypvtz=-165218.3231443
N      -1.47416886     -0.92886368      0.01409329
C      -0.52651320     -0.07008791     -0.00211846
N      -0.56173109      1.28939558     -0.02846587
C       0.86790429     -0.64065560     -0.01485956
O       1.86004433      0.04372556      0.01630349
H      -2.39669111     -0.49352499      0.02957206
H       0.31279206      1.77575991      0.08690239
H      -1.41538044      1.78839149      0.14372557
H       0.88982002     -1.74171636     -0.04709292
