10
b3lypvtz=-160132.44889976
C       1.99735582      0.10192826     -0.12456900
C       0.85964629     -0.52446238      0.16343923
C      -0.48067519      0.04167689      0.02596852
C      -0.86958522      1.30873712      0.07817448
F      -1.41779308     -0.92666462     -0.15223044
H       2.01312303      1.10696866     -0.52574468
H       2.95235359     -0.38060515      0.02941833
H       0.87884325     -1.54825025      0.52072730
H      -1.90798039      1.57335334     -0.05215820
H      -0.15039510      2.09116413      0.26155847
