13
b3lypvtz=-143415.29775807
C       2.05681763      0.58993318      0.29013828
N       1.11395118     -0.03170690      0.85006181
C       0.25834887     -0.87219498      0.02760777
C      -1.20505358     -0.47409592      0.20136454
N      -1.43379840      0.87395371     -0.32158956
H       2.26961050      0.52453365     -0.78397685
H       2.70641050      1.22709806      0.88721301
H       0.52953299     -0.82397867     -1.03580569
H       0.38003821     -1.90239823      0.37396417
H      -1.81828376     -1.17178452     -0.37286147
H      -1.47238139     -0.59288586      1.25963829
H      -0.96477423      1.55290064      0.26727052
H      -2.42041852      1.10072585     -0.29602483
