12
b3lypvtz=-155907.1156269
C      -1.86961593     -0.48453313      0.00000166
C      -0.50914157      0.17854318     -0.00001390
O      -0.37807111      1.38119011      0.00001158
C       0.70482667     -0.75285659     -0.00000536
N       2.00823904     -0.11750057      0.00001331
H      -1.98001563     -1.12651849     -0.87717734
H      -2.65137782      0.27083895     -0.00002123
H      -1.98000766     -1.12644655      0.87723517
H       0.61963542     -1.41427665     -0.86913458
H       0.61960787     -1.41426992      0.86912733
H       2.08574375      0.49497810      0.80448461
H       2.08579796      0.49492056     -0.80449623
