11
b3lypvtz=-121740.09969123096
C       2.27011738      0.55689237      0.18226641
C       0.94082446      0.55772032      0.29022726
C       0.07297873     -0.45303492     -0.30222194
C      -1.23348945     -0.45990319     -0.20175943
C      -2.52861807     -0.46671757     -0.10274750
H       2.79448257     -0.21591726     -0.36687965
H       2.87303143      1.32876867      0.63962282
H       0.44638537      1.34626198      0.84683090
H       0.55195963     -1.25130577     -0.86384383
H      -3.15533599      0.03475471     -0.83258041
H      -3.03233608     -0.97751933      0.71108536
