10
b3lypvtz=-155138.19601456
C       2.00829333     -0.03015690      0.10031549
C       0.81267463     -0.13740700     -0.47403128
N      -0.37218126      0.13006611      0.21255229
C      -1.47088669      0.00467411     -0.40123616
O      -2.65465005      0.24177797      0.18386862
H       2.10077337      0.27280623      1.13417272
H       2.90992993     -0.24361655     -0.45482372
H       0.73312346     -0.44400898     -1.51835562
H      -1.59528460     -0.29952341     -1.44165720
H      -2.47179211      0.50538844      1.09873168
