8
b3lypvtz=-177708.0261054
O      -1.87938000      1.00688997      0.91416721
C      -1.13123967      0.47701184      0.13565935
N       0.15522898      0.08065661      0.45232268
C       1.03119286     -0.52916582     -0.42699455
O       2.14766438     -0.86680470     -0.13366089
H      -1.39772032      0.25457326     -0.91011674
H       0.47961708      0.24962533      1.39704129
H       0.59463669     -0.67268649     -1.42851835
