12
b3lypvtz=-155874.67384518
N      -1.75259682     -0.00000058     -0.31262076
C      -0.51963356     -0.00000031      0.46368256
C       0.53193987      1.03422172      0.02339384
O       1.51463252     -0.00000007     -0.21609672
C       0.53194021     -1.03422212      0.02339410
H      -2.31586150      0.81137177     -0.08077660
H      -2.31586185     -0.81137239     -0.08077556
H      -0.67289099     -0.00000020      1.54868633
H       0.25930890      1.56000623     -0.89600650
H       0.87120111      1.74833408      0.77685147
H       0.87120170     -1.74833416      0.77685193
H       0.25930941     -1.56000697     -0.89600609
