12
b3lypvtz=-132578.16986818
C       2.19755022      0.46855453     -0.14793905
C       1.19564159     -0.39850739     -0.19165543
C      -0.06076094     -0.29027665      0.62423846
N      -1.23837864     -0.44368919     -0.22210783
C      -2.10712590      0.46819982     -0.20141804
H       2.16533539      1.34542525      0.48832719
H       3.09037083      0.33164865     -0.74367195
H       1.24765701     -1.26152744     -0.84693517
H      -0.06915282      0.64891686      1.19469050
H      -0.08434706     -1.11750309      1.34331340
H      -2.02479933      1.37057157      0.41789912
H      -2.99496935      0.37415007     -0.82322020
