12
b3lypvtz=-153397.87106019352
C      -0.62473181      0.51563284     -0.52617261
N      -1.95747414      0.25923349      0.20941419
H      -2.72981423      0.43107850     -0.43050318
H      -2.03743720      0.94776536      0.95343420
H      -2.10043398     -0.67162970      0.65538086
C       0.47864634      0.38130084      0.37879557
N       1.53467461     -0.37962909      0.13067565
N       2.73553614     -0.27649340      0.69738301
H      -0.60245562     -0.17900277     -1.36701904
H       0.61772168      1.04419685      1.22821670
H       1.40475609     -1.02306781     -0.65072415
H       3.28101211     -1.04938510      0.32138979
