12
b3lypvtz=-155893.21278428
C      -1.60602701     -0.83033777      0.19916846
C      -0.58165123     -0.02240856     -0.07852714
O      -0.71337282      1.33574123      0.02876853
N       0.68298050     -0.42756789     -0.52238672
C       1.84112437     -0.09419938      0.31548728
H      -1.46868190     -1.89998524      0.24059147
H      -2.58717204     -0.42360053      0.38612746
H      -0.12698826      1.74032890     -0.62231967
H       0.67365125     -1.40520451     -0.77446519
H       2.75377296     -0.35142317     -0.22048548
H       1.85796920      0.97559352      0.51397208
H       1.83483698     -0.61604359      1.27962093
