13
b3lypvtz=-122487.58541227
C      -1.93342668     -0.58901031     -0.04838681
C      -0.68740101      0.19594414      0.03480967
C      -0.01231197      1.27488467     -0.18396122
C       0.74641952      0.16586934      0.49564972
C       1.81000430     -0.64467864     -0.22362175
H      -2.73088178     -0.02731552     -0.53611191
H      -1.76940350     -1.51457553     -0.60600271
H      -2.27115590     -0.87812315      0.95043333
H       0.03602272      2.27659097     -0.57342059
H       0.93661074      0.26240936      1.56743698
H       2.79376593     -0.17583714     -0.13318465
H       1.57921194     -0.73437541     -1.28726474
H       1.89221169     -1.65347878      0.19067668
