11
b3lypvtz=-165978.69946617
N      -1.73275266     -0.69624759     -0.11121716
C      -0.65643586     -0.05070128      0.02381694
O      -0.55499530      1.29609737      0.07723240
C       0.67303011     -0.77411219      0.18626178
N       1.78781514      0.11844685     -0.15871339
H      -2.53036668     -0.06389000     -0.16333134
H       0.40678605      1.48304408      0.08888698
H       0.76674079     -1.04813255      1.23864989
H       0.63409371     -1.70098634     -0.38679121
H       2.02350337      0.05714166     -1.14115920
H       2.62065832     -0.09960701      0.36983430
