10
b3lypvtz=-155075.7922995348
C       0.95931691      0.72500723     -0.03739516
C       1.16556155      0.70756687     -1.33999896
O       1.22353106      0.72894583     -2.50868624
C      -0.46413925      0.63777201      0.40259910
N      -0.81929943     -0.88777351      0.60581195
H      -0.26143160     -1.22816326      1.38351228
H      -0.65207771     -1.52891350     -0.18710525
H      -1.79675710     -0.95840829      0.88063881
H       1.79160054      0.87025764      0.64102345
H      -1.14630497      0.93370899     -0.39742967
