8
b3lypvtz=-175212.6730987
N       1.03727776     -0.04336259     -0.02376010
N       0.34769946      0.81456349     -0.60950659
C      -1.06287871      0.67717350     -0.51568569
N      -1.83923884     -0.16321753      0.05809717
O      -1.22761993     -1.17816421      0.75092802
H       2.01780080      0.21975900     -0.20343767
H      -1.58760146      1.45818342     -1.04893761
H      -1.97933909     -1.67753509      1.09190247
