11
b3lypvtz=-142660.45529166
C       1.66412871     -0.75993557      0.15103128
C       1.08484971      0.57350316     -0.21684581
N      -0.11282202      0.96447632     -0.09965481
C      -1.15368536      0.17525203      0.39230900
N      -1.88543406     -0.63595293     -0.25182682
H       0.91573113     -1.44595781      0.54124022
H       2.45325594     -0.62234686      0.89491808
H       2.13842672     -1.21267417     -0.72341912
H       1.79071535      1.29627270     -0.63026969
H      -1.39722243      0.38659693      1.43541909
H      -1.57118669     -0.71351980     -1.22129142
