12
b3lypvtz=-155898.29313235
C      -1.78291962     -0.62617443     -0.00006159
C      -0.40888330     -0.03081428     -0.00003791
N      -0.23740892      1.40322120     -0.00015870
C       0.71682478     -0.74997205      0.00009166
O       1.95743739     -0.20545852      0.00012161
H      -1.74382842     -1.71654611      0.00010426
H      -2.35637618     -0.31291195     -0.87934500
H      -2.35650816     -0.31265579      0.87904430
H      -0.66877310      1.82930519      0.81380374
H      -0.66840768      1.82912396     -0.81441102
H       0.72702265     -1.83129057      0.00017004
H       1.80462855      0.75650436      0.00008062
