15
b3lypvtz=-144187.25579012
C      -1.77505204     -0.68731010     -0.00287253
C      -0.47422796      0.03452968     -0.33396003
N      -0.56776990      1.44050236      0.06707036
C       0.74019630     -0.69271799      0.26428816
N       1.98084298      0.00482643     -0.09367996
H      -1.76198092     -1.71752360     -0.36168982
H      -1.93860024     -0.71320866      1.07869523
H      -2.62099963     -0.17237849     -0.45742129
H      -0.34933746      0.02732332     -1.42449894
H       0.36202544      1.84626546      0.01999628
H      -0.85293638      1.49658775      1.04046316
H       0.65159167     -0.68069476      1.35459971
H       0.72517125     -1.74660690     -0.04932146
H       2.21755993     -0.16904099     -1.06400988
H       2.75904199     -0.33067650      0.45963501
