10
b3lypvtz=-155101.80517766695
C      -0.83835421     -0.87187399     -0.01737245
C       0.24294543      0.17831909     -0.00478983
C      -0.71124134      1.08683523      0.22772206
O      -1.81500208      0.18850189      0.23797424
N       1.59985511      0.09932870     -0.17447514
H      -0.82618694     -1.59733362      0.79715563
H      -1.03367575     -1.36225761     -0.97196956
H      -0.83971495      2.14440003      0.38315112
H       2.04273349     -0.78131485     -0.34307048
H       2.17864124      0.91539511     -0.13432561
