12
b3lypvtz=-155868.40983226086
C      -1.42174707     -0.48183732      0.17622538
C      -0.09136488      0.15480711     -0.07889108
N       1.14743019     -0.57119641      0.32564003
H       1.76222804     -0.67458729     -0.49080224
H       0.96227388     -1.47264339      0.75593121
H       1.70223924      0.02552619      0.95114016
C       0.29559630      1.34579832     -0.64358917
O       1.51107914      1.67729552     -0.75551608
H      -1.99535030     -0.66561003     -0.73837357
H      -2.06083249      0.10541931      0.84403680
H      -1.30539763     -1.45847376      0.65694260
H      -0.50615438      2.01550174     -1.00274403
