12
b3lypvtz=-132558.48840376045
C      -0.57939112     -0.99462045      0.04523493
C      -1.02497128      0.51922855      0.08223234
C       0.27752450      1.27561653     -0.02132185
N       1.25774101      0.37267505     -0.09993735
C       0.92377950     -0.91966054     -0.07414909
H      -1.03699730     -1.52263600     -0.79665777
H      -0.89855729     -1.52438199      0.94768384
H      -1.70723502      0.75229435     -0.74063968
H      -1.56753002      0.75086129      1.00361064
H       0.47284293      2.33060299     -0.03637256
H       2.22365955      0.65889192     -0.17666819
H       1.65913456     -1.69887167     -0.13301528
