11
b3lypvtz=-168394.36763639
C       1.95862752      0.04722423      0.00000506
C       0.65281674     -0.73704467     -0.00000157
C      -0.57923073      0.15198602     -0.00000375
O      -0.56327787      1.34892852      0.00000563
O      -1.77007257     -0.51008410      0.00000141
H       2.81168564     -0.63154400      0.00000640
H       2.02588153      0.68794868     -0.87795395
H       2.02587483      0.68794385      0.87796807
H       0.59339801     -1.39361566     -0.87431287
H       0.59338943     -1.39361512      0.87430959
H      -1.62468454     -1.46345575     -0.00000202
