9
b3lypvtz=-144284.41867307
C       2.18110903     -0.16447791      0.00000269
C       0.99246482      0.00813479     -0.00000552
C      -0.45232919      0.20030804     -0.00000926
C      -1.27905903     -1.06168483      0.00002195
O      -0.93277236      1.31171488     -0.00003521
H       3.23495656     -0.29894304      0.00005035
H      -2.33592021     -0.80624332     -0.00001607
H      -1.03806758     -1.66531615      0.87761022
H      -1.03802004     -1.66539546     -0.87749816
