14
b3lypvtz=-133355.09117385
C      -2.48306267     -0.30703697      0.00000697
C      -1.15778965      0.38634598     -0.00000202
N      -0.06489742     -0.24354416     -0.00000863
C       1.18307939      0.52611409      0.00000568
C       2.39058017     -0.40030641      0.00000399
H      -3.06797415     -0.01624955     -0.87715362
H      -2.34539327     -1.38640783     -0.00001452
H      -3.06793559     -0.01628105      0.87720400
H      -1.19165311      1.48756323      0.00003190
H       1.21434367      1.17835979      0.87969918
H       1.21435441      1.17837673     -0.87967460
H       2.38089523     -1.04301863     -0.88102945
H       2.38088394     -1.04303656      0.88102428
H       3.32023105      0.17166832      0.00001583
