12
b3lypvtz=-155878.07948342443
C      -1.66025500     -0.31924636      0.36487209
C      -0.18336334      0.02412038      0.47743208
N       0.44661644      0.04918321     -0.85385712
C       1.70935073      0.30735357     -1.15962592
O       2.37887848      0.56005541     -0.00527218
H      -1.80395324     -1.30182394     -0.08931254
H      -2.12370034     -0.33781875      1.35119317
H      -2.19260977      0.41812662     -0.23948032
H       0.33735136     -0.70469433      1.10043319
H      -0.04680179      0.99771649      0.95063213
H      -0.14848855     -0.15432662     -1.63966025
H       3.28697504      0.74284707     -0.25735433
