13
b3lypvtz=-145823.21545211
C       2.12331448      0.29515006      0.03986795
C       0.69478874      0.01789046     -0.31050795
C      -0.27451411     -0.26033560      0.55629204
C      -1.69669485     -0.53160554      0.17558878
O      -2.61082470      0.38016559      0.79102034
H       2.79116340     -0.43181525     -0.43074863
H       2.43275001      1.28002816     -0.32098630
H       2.28719439      0.25917977      1.11705377
H       0.44939264      0.04216676     -1.37019044
H      -0.05868541     -0.28428298      1.62145449
H      -2.00778482     -1.51758009      0.52760766
H      -1.80311485     -0.52183854     -0.91580259
H      -2.32698493      1.27287722      0.56911431
