9
b3lypvtz=-141898.46204104
C       1.49090503     -0.82268312      0.00004271
N       1.18300589      0.60117212      0.00021371
C      -0.02381779      0.98250687      0.00011544
C      -1.17312785      0.10277593     -0.00014334
N      -2.08255947     -0.60524199     -0.00035324
H       2.57002239     -0.95174437     -0.00088586
H       1.07609183     -1.31622268      0.88299217
H       1.07441470     -1.31660857     -0.88190173
H      -0.24651674      2.04618181      0.00027414
