10
b3lypvtz=-152722.13341697
C       2.28920234      0.20603454     -0.00403871
N       1.20254724     -0.45211917      0.00069318
N       0.05989830      0.34982081      0.01541134
C      -1.00491460     -0.36388445      0.00467073
N      -2.24159131      0.19219488     -0.03730664
H       2.31259813      1.29526711     -0.00186129
H       3.21877512     -0.35044503     -0.01247301
H      -0.96492861     -1.45236883     -0.00187832
H      -2.31420351      1.18672837      0.10016771
H      -3.03973612     -0.36630923      0.20197601
