13
b3lypvtz=-143404.85382297
C       2.38970678      0.20344992      0.06247232
N       1.29765239     -0.41417283     -0.15215747
N       0.12920683      0.27189004     -0.11805249
C      -1.05349601     -0.52658622      0.17894545
C      -2.31881407      0.28073135     -0.07145261
H       2.43758846      1.26569599      0.31795506
H       3.31416835     -0.35035255     -0.02661358
H       0.16829343      1.15733508      0.38413087
H      -1.01614511     -1.39847359     -0.47368239
H      -1.04164806     -0.89873714      1.21252630
H      -2.36045560      1.16544491      0.56871281
H      -2.36982951      0.61173431     -1.10909275
H      -3.20185589     -0.32098929      0.14554445
