13
b3lypvtz=-145819.90882232
C       2.26227091      0.19853035      0.04655777
C       1.08625681     -0.03409073      0.61560357
C      -0.10866839     -0.62050126     -0.07414385
C      -1.30076147      0.33000919     -0.08695983
O      -2.40205506     -0.35951171     -0.67266481
H       2.44426036     -0.03581314     -0.99601678
H       3.08770071      0.62415669      0.60206396
H       0.95446904      0.21737739      1.66530638
H       0.13920230     -0.89529770     -1.10117190
H      -0.42310676     -1.53577711      0.43774333
H      -1.53694170      0.64350968      0.93793484
H      -1.04880331      1.22958334     -0.66053248
H      -3.15392345      0.23782502     -0.71382021
