15
b3lypvtz=-123284.90600928
C      -2.14551938     -0.00001198     -0.16110933
C      -0.94970829     -0.00001046      0.41379217
C       0.37006840      0.00000424     -0.30726537
C       1.17519366     -1.26471210      0.02863885
C       1.17516895      1.26473455      0.02864612
H      -2.25602153     -0.00000285     -1.23971435
H      -3.05745659     -0.00002097      0.42167474
H      -0.88685423     -0.00001885      1.50051925
H       0.16574806      0.00000543     -1.38243268
H       1.38931560     -1.31688388      1.09918544
H       2.12975953     -1.26955948     -0.50146848
H       0.62713341     -2.16648241     -0.24681128
H       1.38928721      1.31690606      1.09919345
H       2.12973605      1.26960223     -0.50145883
H       0.62709215      2.16649546     -0.24680170
