12
b3lypvtz=-132567.47380604
C      -1.92857444      0.00000010      0.02996681
C      -0.60995226      0.00000006     -0.03817701
C       0.46903450      1.06514453     -0.05084578
N       1.47815216     -0.00000011      0.22044779
C       0.46903433     -1.06514456     -0.05084580
H      -2.49359574      0.92341696      0.05934343
H      -2.49359577     -0.92341674      0.05934351
H       0.41476299      1.83507742      0.72208018
H       0.57404562      1.55624438     -1.02551549
H       2.26161855     -0.00000015     -0.41939226
H       0.41476268     -1.83507747      0.72208015
H       0.57404539     -1.55624442     -1.02551551
