13
b3lypvtz=-143388.5922851859
C      -1.81121312      0.27628501     -0.26764105
C      -0.71939880     -0.44561535      0.53775966
C       0.60879984      0.23480492      0.49879231
N       1.67142887     -0.34476698     -0.01860211
N       2.92211123      0.00430795     -0.18340676
H      -1.54864336      0.32806354     -1.32503573
H      -2.76904220     -0.23931280     -0.17576386
H      -1.94744899      1.29783968      0.09145745
H      -1.06002310     -0.54310305      1.57527835
H      -0.60836196     -1.46935849      0.16496716
H       0.74349769      1.23535783      0.88828765
H       1.50601964     -1.28350264     -0.37462514
H       3.01227426      0.94900037      0.19791432
