9
b3lypvtz=-162775.54781982
N       1.52995289     -0.89565727     -0.00000237
C       1.22729258      0.32979313     -0.00000042
N      -0.03254344      0.94825374     -0.00000360
N      -1.27068549      0.42120930     -0.00000812
N      -1.32781716     -0.82711652     -0.00000869
H       0.69487681     -1.47634324     -0.00000737
H       2.01153798      1.08895443      0.00000549
H      -0.06028206      1.95385213     -0.00000201
H      -2.32542412     -1.05019271     -0.00001091
