11
b3lypvtz=-145027.49331626555
C       1.51419597     -0.35374973     -0.61101255
C       0.14715238     -0.39327796     -0.05763552
C      -1.00644516     -0.97606274      0.07557544
C      -0.89514985      0.35420123      0.69445726
O      -1.58474133      1.42933843      0.06526340
H       1.62565553      0.51124489     -1.26886315
H       2.25233860     -0.24524914      0.18755009
H       1.74577050     -1.25369369     -1.18147729
H      -1.65915819     -1.80189189     -0.14871028
H      -0.84842526      0.47658418      1.77723117
H      -1.29119318      2.25255642      0.46762143
