11
b3lypvtz=-142655.23743743
C       1.84960884     -0.09894116      0.21565163
N       0.80824731     -0.51717868     -0.36687752
C      -0.43707426      0.07264266     -0.06927264
C      -0.63547626      1.40099686     -0.04615367
N      -1.43871926     -0.88293957      0.05856547
H       1.83386864      0.68189608      0.98162397
H       2.81138411     -0.52827829     -0.05427360
H      -1.62061997      1.81708672      0.10949059
H       0.16892897      2.08047454     -0.27552262
H      -1.12092033     -1.78604341      0.37223130
H      -2.27584080     -0.57050175      0.52205810
