7
b3lypvtz=-141093.20516856396
C      -1.87384290     -0.33154648      0.05687157
C      -0.73584977      0.05071597     -0.03760621
C       0.57684825      0.53483056     -0.16104845
N       1.59871430     -0.23140511      0.12196946
N       2.48646665     -0.88518556      0.36387445
H      -2.87523397     -0.67150140      0.14165837
H       0.82289743      1.53409201     -0.48571917
