11
b3lypvtz=-165914.43795914564
C       1.97255296      0.05665540     -0.18535305
N       0.69290750     -0.44678544     -0.03674356
C      -0.46124409      0.14317071      0.10768872
N      -1.67270405     -0.53458220      0.24625360
O      -0.45518872      1.50502652      0.12027843
H       2.11278865      1.11865882     -0.19084067
H       2.75880732     -0.66413536     -0.28781804
H       0.64417430     -1.45455730     -0.04094904
H      -1.71439544     -1.53430000      0.24191355
H      -2.53211576     -0.03609095      0.35326505
H      -1.34558266      1.84693978      0.23033121
