11
b3lypvtz=-142624.40955360723
C      -1.84514055     -0.38945706      0.25942952
N      -0.52037803     -1.00743009      0.23295052
C       0.44932749     -0.24867852     -0.00266798
C       1.91429075     -0.08405865     -0.18247815
N       0.90693698      0.97469222     -0.26766298
H      -2.10273916      0.07035752     -0.70130770
H      -1.92185616      0.38452456      1.03144586
H      -2.59039534     -1.15322193      0.47564462
H       2.37922496     -0.41072150     -1.10891471
H       2.56350091     -0.09099907      0.68910212
H       0.76722814      1.95499251     -0.42554112
