9
b3lypvtz=-162741.19610634507
C      -1.65160419     -0.56178962     -0.23958305
N      -0.44712712     -0.14761688     -0.04818368
N       0.17290572     -0.02548556      1.13480498
N       1.43505704      0.43784854      0.97262617
N       1.81895039      0.67238923     -0.20606891
H      -2.02660168     -0.61061506     -1.24901654
H      -2.25059887     -0.84766747      0.61201953
H       0.17211896      0.13929115     -0.83227725
H       2.77689973      1.00883559     -0.14432124
