11
b3lypvtz=-142622.4300059458
C      -2.36422954     -0.19809145      0.31592793
C      -1.04847107     -0.44847320      0.31026842
N      -0.08097137      0.52642966      0.29557761
N       1.13405020      0.05306991      0.29255599
C       2.25588500      0.73250331      0.27960425
H      -3.07570857     -1.00912505      0.32757288
H      -2.73825120      0.81579247      0.30898415
H      -0.70589335     -1.49066997      0.31767090
H       1.23597246     -0.96845327      0.30123963
H       2.21007787      1.80752268      0.27012977
H       3.17753958      0.17949493      0.27904096
