9
b3lypvtz=-170218.33659158
N      -2.20187917     -0.54575692      0.14694956
C      -1.26191853      0.09126266     -0.03526559
C      -0.07122062      0.90731920     -0.25113990
C       1.18460999      0.31871156      0.38318019
F       1.51447005     -0.87380153     -0.24102003
H      -0.24712258      1.90039485      0.16952788
H       0.08707064      1.03065073     -1.32370648
H       1.03616449      0.11689788      1.44406375
H       2.01835373      1.01009458      0.25483963
