12
b3lypvtz=-153508.59563397
C       1.92603370     -0.07010428      0.00366489
N       0.60787748     -0.66954875     -0.06473908
C      -0.52875952      0.12520747     -0.00356509
N      -0.59547529      1.40045586     -0.01433190
N      -1.69771834     -0.63438937      0.08194483
H       2.10575629      0.48041409      0.93479881
H       2.67370528     -0.85667467     -0.08218488
H       2.06824760      0.61639591     -0.83187605
H       0.51326818     -1.55011931      0.41640194
H       0.32038507      1.83162555      0.04896933
H      -2.51437677     -0.04935144     -0.01205776
H      -1.72448667     -1.42770007     -0.54219105
