13
b3lypvtz=-143402.35170425
N      -2.03389140     -0.35915494      0.01366635
C      -0.91257828      0.57057675     -0.16651774
C       0.34979005      0.01596016      0.44222658
C       1.69101542      0.49777359      0.04098531
N       1.19910474     -0.81217621     -0.41988353
H      -2.35243648     -0.34524349      0.97604170
H      -2.82355485     -0.07299447     -0.55212421
H      -1.09798025      1.57062166      0.25427163
H      -0.74230710      0.69504787     -1.23711757
H       0.24812016     -0.29502289      1.47913390
H       2.47064390      0.53334911      0.79282898
H       1.78410883      1.24420405     -0.73912794
H       1.62929626     -1.56245418      0.10931754
