11
b3lypvtz=-142624.80394331156
C      -2.18716747      0.01681713     -0.04700759
C      -0.91735091     -0.13982879      0.35911594
C       0.24410908      0.10586087     -0.43130403
N       1.45814459     -0.07839503      0.05942586
N       2.59194220      0.11037631     -0.56042007
H      -3.01513318     -0.19110637      0.61418336
H      -2.42597313      0.35550574     -1.04687987
H      -0.74060572     -0.48350680      1.37694235
H       0.19589639      0.44922421     -1.45425615
H       1.46880989     -0.40268821      1.02784460
H       3.32732828     -0.12365486      0.10235559
