9
b3lypvtz=-165180.4224443197
C      -0.17313247     -0.60093429     -0.38678212
N       0.77606467      0.26550587     -0.04476150
N       2.03089034      0.20036182     -0.29338685
C      -1.50065973     -0.25615822      0.03563568
O      -1.76681727      0.76131862      0.66928567
H       0.09784073     -1.48283793     -0.94267032
H       0.36767200      1.05351746      0.48003843
H       2.46045553      1.02991164      0.11453547
H      -2.29231380     -0.97068496     -0.24509972
