13
b3lypvtz=-143425.08083785
C       0.56472339      1.42834132     -0.00224520
C       0.51990382      0.08565674      0.00197468
N       1.66154846     -0.73273182      0.07440095
N      -0.63846777     -0.68072451     -0.05000265
C      -1.93799527     -0.04147127     -0.01099344
H       1.51041663      1.94205907     -0.08842818
H      -0.32458024      2.02986490      0.08662384
H       1.66612085     -1.45797346     -0.63123791
H       2.52078538     -0.20513331      0.04709534
H      -0.56948373     -1.51234542      0.51788645
H      -2.10739740      0.54837937      0.89871787
H      -2.04828705      0.62342061     -0.86828297
H      -2.70924408     -0.80762521     -0.07622279
