14
b3lypvtz=-156656.95308403
C       2.13234259      0.51107994     -0.35646614
C       0.94679158     -0.43082909     -0.28788349
O      -0.23544512      0.33252932     -0.11746666
C      -1.41758630     -0.46560673     -0.03785994
N      -2.59004770      0.33158126      0.13141058
H       3.05858941     -0.05088031     -0.48713464
H       2.02581638      1.20094590     -1.19411436
H       2.20981306      1.09645887      0.56018736
H       0.87912796     -1.03021594     -1.20708147
H       1.06438752     -1.13517309      0.54807189
H      -1.51548850     -1.05826546     -0.95588777
H      -1.32904369     -1.15851413      0.80809711
H      -2.52892971      0.88228126      0.97918277
H      -2.70032748      0.97460818     -0.64324234
