13
b3lypvtz=-145819.12698316
C       2.44551477     -0.29374693     -0.00016277
C       1.28294872      0.34719413      0.00014629
O       0.08810737     -0.29677278      0.00005392
C      -1.07283388      0.53817709     -0.00009110
C      -2.29639327     -0.35210755      0.00013549
H       3.36634201      0.26842454      0.00000502
H       2.49577586     -1.37345401     -0.00055443
H       1.22767731      1.43260195      0.00053647
H      -1.05929679      1.18166757     -0.88650951
H      -1.05924437      1.18204786      0.88605116
H      -2.30804016     -0.99004272     -0.88365625
H      -3.20222926      0.25578157      0.00004955
H      -2.30796730     -0.98968972      0.88418316
