14
b3lypvtz=-133350.69287838
C      -2.12754780     -0.05464505     -0.16925186
C      -0.94080417      0.00727493      0.41993747
C       0.37841436      0.03176956     -0.30115368
C       1.21497041     -1.20541623      0.03646199
N       1.11953267      1.22984373      0.12325390
H      -3.04633819     -0.07916566      0.40206757
H      -2.22306491     -0.08768124     -1.24885906
H      -0.87021283      0.05131251      1.50333938
H       0.17280458      0.02063249     -1.38159155
H       1.41307226     -1.24871407      1.10850062
H       2.17544702     -1.17310970     -0.48396080
H       0.69799031     -2.11699258     -0.26335053
H       0.62202645      2.06866648     -0.15183859
H       2.02841584      1.26025884     -0.32479186
