7
b3lypvtz=-162032.62431856
C       1.01650464     -0.16168179     -0.03622576
N      -0.00827057     -0.97708968     -0.22763471
N      -1.02211266     -0.14792429     -0.03588292
N      -0.67416827      1.09462411      0.25383111
N       0.63099482      1.10174982      0.25742057
H       2.04294398     -0.47400801     -0.10740397
H      -1.98589193     -0.43567015     -0.10410432
