10
b3lypvtz=-131834.38647813
C      -2.15912524     -0.26144115     -0.30356183
C      -1.04923072     -0.19031561      0.41498505
C       0.09045810      0.75273856      0.11276563
C       1.36748110      0.05716993     -0.05373736
N       2.36710204     -0.49874623     -0.17556586
H      -2.95742490     -0.94075146     -0.03753368
H      -2.31286185      0.35442801     -1.18159264
H      -0.91789225     -0.82476122      1.28419627
H      -0.11653920      1.32667955     -0.79227915
H       0.21190891      1.47245963      0.92856258
