13
b3lypvtz=-143429.82707478
C       2.06627188     -0.63959524      0.02844337
C       1.17889299      0.59349712     -0.14456206
N      -0.16755064      0.43791223      0.38182690
C      -1.22938360      0.01228742     -0.37323689
N      -2.39386339     -0.34796442     -0.00463533
H       3.06400482     -0.45609946     -0.37552697
H       1.64042209     -1.50165574     -0.48669200
H       2.17524049     -0.89802090      1.08360933
H       1.08764094      0.84341269     -1.20296174
H       1.64396431      1.45742440      0.33635285
H      -0.26371176      0.36446813      1.38319555
H      -1.01142273      0.02746541     -1.44262743
H      -2.49373839     -0.32915464      1.01196342
