11
b3lypvtz=-145058.29767476
C       0.23315446      1.04580803     -0.30723825
C      -0.96762495      0.48844115     -0.25992845
C      -0.85278747     -0.93278838      0.20440159
O       0.54579876     -1.14009542      0.42208915
C       1.27346108      0.05406530      0.12054377
H       0.46353313      2.05861891     -0.60430817
H      -1.90769042      0.95787001     -0.51094001
H      -1.22142616     -1.64917727     -0.54072700
H      -1.40329781     -1.11617769      1.13585803
H       1.82801404      0.38346705      1.00838069
H       2.00876535     -0.15003167     -0.66813134
