14
b3lypvtz=-133342.23115785
C      -0.79112457      1.36462306     -0.06497354
C      -0.13748651      0.00081363     -0.02892148
C      -1.09647122     -1.16799529     -0.00211060
C       1.19595079     -0.16340393     -0.65632806
N       1.05837688     -0.17722037      0.81455719
H      -1.40666050      1.52190589      0.82462966
H      -0.04647100      2.16175476     -0.10737142
H      -1.44084343      1.46668107     -0.93718134
H      -0.55233192     -2.10814450      0.07615084
H      -1.76807861     -1.09558383      0.85680760
H      -1.70802889     -1.19274480     -0.90712814
H       1.47692959     -1.11345823     -1.09495261
H       1.65057436      0.70144253     -1.12597628
H       1.35502002      0.71597400      1.19524919
