11
b3lypvtz=-142672.24115577
C      -1.13567219     -1.17472286     -0.13588249
C      -0.37811498      0.04542275      0.39423398
N      -0.97073714      1.27797025     -0.12440402
C       1.06812562     -0.07299656      0.09985877
N       2.19002895     -0.12788501     -0.15340832
H      -2.18664617     -1.08240766      0.13285091
H      -0.73470457     -2.09667928      0.28331203
H      -1.05614804     -1.23282581     -1.22243514
H      -0.47474581      0.07024097      1.48235483
H      -0.49858062      2.09201612      0.25096694
H      -0.87484506      1.31807809     -1.13321249
