8
b3lypvtz=-154356.35195353
N       2.22134159      0.12441831     -0.20563651
C       1.12159071     -0.00818000      0.10492286
C      -0.25077382     -0.17039439      0.53195556
C      -1.31697180      0.66908788     -0.03901616
O      -1.16573745     -0.69183509     -0.43134357
H      -0.36347210     -0.56108490      1.53741229
H      -1.06035046      1.40311717     -0.79405013
H      -2.18519868      0.88723402      0.57305266
