10
b3lypvtz=-183434.02740783
O      -1.18765951      0.91290105     -0.51557084
C      -0.91266653     -0.30394700      0.16528972
C       0.56362716     -0.50305627      0.28365088
C       1.45778539      0.34584716     -0.18612756
F       2.78274409      0.11842851     -0.05285524
H      -2.13991895      1.02063686     -0.57989228
H      -1.34899400     -1.15893447     -0.36964550
H      -1.35659764     -0.29889098      1.17049327
H       0.89913002     -1.40177985      0.78715944
H       1.24254997      1.26869498     -0.70240189
