11
b3lypvtz=-145023.73594013814
C      -1.10064822     -0.63503163     -0.21314538
C       0.11430229      0.25657163     -0.06880369
C       1.16517160      0.06290792      0.96796440
C       1.50251844     -0.20976726     -0.25524450
O      -0.14082336      1.58666595     -0.51478400
H      -1.93471042     -0.26131114      0.38989157
H      -0.88226433     -1.65024643      0.11498202
H      -1.43166602     -0.66662065     -1.25341964
H       1.45689076      0.16102161      1.99963404
H       2.26622657     -0.49347485     -0.95907400
H      -1.01499729      1.84928486     -0.20800083
