12
b3lypvtz=-132589.86446731
C       2.42867403     -0.27958691     -0.00000659
C       1.26871505      0.37256399      0.00000659
N       0.04514133     -0.30316689      0.00000702
C      -1.02273002      0.38671608      0.00002792
C      -2.37773484     -0.23555390      0.00001698
H       3.36820789      0.25393987     -0.00001317
H       2.45062717     -1.36073308     -0.00000622
H       1.24436450      1.46482587      0.00002447
H      -0.98657745      1.48595696      0.00001532
H      -2.94723010      0.08704206     -0.87650428
H      -2.29955490     -1.32054848      0.00001161
H      -2.94725367      0.08703242      0.87652634
