13
b3lypvtz=-143430.68567717
C      -2.30234336     -0.04252920      0.01049077
C      -0.82826180     -0.42456095     -0.01551245
N       0.01043500      0.76561712      0.00677593
C       1.27089787      0.61552651      0.00949151
N       1.99047882     -0.55851213     -0.04538006
H      -2.93934988     -0.92905383     -0.00618167
H      -2.53041941      0.53203922      0.90883288
H      -2.54782214      0.57749473     -0.85222012
H      -0.60829103     -1.07392918      0.84644178
H      -0.62054961     -1.02401538     -0.91339091
H       1.89956145      1.50464931      0.01622696
H       1.52441417     -1.42420513      0.16645251
H       2.96343594     -0.52469010      0.20412589
