11
b3lypvtz=-121763.25795347
C      -0.73289198      0.98683965      0.00000108
C      -1.17682852     -0.28117779     -0.00000197
C      -0.00001395     -1.21426992     -0.00000333
C       1.17682185     -0.28120458     -0.00000104
C       0.73291417      0.98682296      0.00000164
H      -1.34526279      1.87709705     -0.00001122
H      -2.20588413     -0.60670044      0.00003213
H      -0.00002238     -1.87539487      0.87480605
H      -0.00002058     -1.87545684     -0.87476458
H       2.20587006     -0.60675063      0.00002982
H       1.34530526      1.87706641     -0.00000458
