12
b3lypvtz=-184194.7125773
C       2.06344246     -0.48694315      0.20981268
O       1.23521084      0.49295993     -0.38999112
C      -0.03900427      0.63474513      0.21050875
C      -1.04158265     -0.34962014     -0.37650197
F      -2.28293317     -0.14103586      0.22456788
H       2.24182541     -0.26156673      1.26776885
H       3.01350608     -0.46673930     -0.32097072
H       1.64371603     -1.49601236      0.13403921
H      -0.37731822      1.65191885      0.00785527
H       0.01514499      0.50629773      1.29796424
H      -0.75192985     -1.38556718     -0.19145925
H      -1.14906366     -0.19293693     -1.45084882
