9
b3lypvtz=-162787.73793809
N      -1.79797159     -0.02182309     -0.00002028
N      -0.76700298     -0.69547015     -0.00007106
C       0.45739208      0.14146929      0.00002957
N       0.51826369      1.40473258      0.00000026
N       1.53093915     -0.68940664     -0.00001338
H      -2.59051559     -0.67853561      0.00022553
H      -0.42472288      1.78980752      0.00000660
H       1.38848657     -1.68134888      0.00004238
H       2.45735755     -0.30581603      0.00001738
