9
b3lypvtz=-167614.71300613
C       2.19343131     -0.10056781      0.00000223
C       0.89554047     -0.34722079     -0.00000008
O      -0.00875798      0.70457938      0.00000194
C      -1.33266380      0.41374545      0.00000028
O      -1.81775460     -0.67885834     -0.00000260
H       2.58095037      0.90829889      0.00000425
H       2.89234024     -0.92296859      0.00000179
H       0.44434897     -1.32787761     -0.00000386
H      -1.89042598      1.35694340      0.00000205
