10
b3lypvtz=-178446.85883475
N      -0.74793543      1.72118176      0.01811600
C      -0.50827621      0.51721854     -0.26668690
O      -1.14465127     -0.19408558     -1.23027152
C       0.52676632     -0.27591107      0.51079329
O       1.00427538     -1.40050606     -0.23235485
H      -1.50244236      2.09414852     -0.55667446
H      -0.71159330     -1.06230548     -1.27907280
H       0.05376276     -0.68395141      1.40524302
H       1.32879391      0.38995249      0.82596596
H       1.70130019     -1.10564171     -0.82705774
