8
b3lypvtz=-180248.33474423
C      -0.70136593      1.32763000      0.00000534
C      -0.43263100      0.03120825     -0.00008158
F      -1.40512710     -0.88922370      0.00003149
N       0.82749788     -0.61953269     -0.00015192
N       1.80881926      0.14051973     -0.00028882
H      -1.72066884      1.68088301      0.00018194
H       0.11596070      2.03125287     -0.00002504
H       2.64231004     -0.46111948     -0.00035040
