12
b3lypvtz=-132567.78619280978
C      -1.49999272      0.06501327      0.31005314
C      -0.14081775     -0.17598504      0.93613318
C       0.88337854     -0.98864220      0.16273768
C       1.64347872      0.10638549      0.03710898
N       0.83127738      0.97913398      0.81973437
H      -2.10515015     -0.84275548      0.34814968
H      -1.39762699      0.35902330     -0.73637188
H      -2.04345273      0.84734569      0.84588697
H      -0.24447964     -0.46543461      1.98526502
H       1.00616534     -2.03861189     -0.04499611
H       2.60070731      0.35451510     -0.40135191
H       0.46651270      1.80001238      0.34533155
