10
b3lypvtz=-183446.6183917
O       2.26231634     -0.13021424     -0.21657082
C       1.11818922     -0.35808447      0.08148584
C       0.08806636      0.71352066      0.35400963
C      -1.23219095      0.47275765     -0.36080038
F      -1.83612809     -0.68373302      0.13602138
H       0.75365285     -1.39956706      0.17965442
H      -0.10538175      0.73186094      1.43200478
H       0.50409467      1.68081209      0.06778082
H      -1.91951581      1.30362539     -0.19594030
H      -1.09360383      0.33434306     -1.43516339
