12
b3lypvtz=-155857.49768723862
C       2.21520897     -0.62336340     -0.00496752
N       0.89106693     -0.52142159     -0.00044787
C       0.04393067      0.41716827      0.43239920
C      -1.39619727      0.28396474      0.16063185
O      -1.74825823      0.87448142     -1.11559787
H       2.80945663      0.19054483      0.37299349
H       2.65479149     -1.52659697     -0.38519909
H       0.41751182     -1.32322143     -0.40482764
H       0.47153631      1.32482932      0.82887956
H      -1.68101086     -0.77924807      0.15928427
H      -1.96797148      0.77185725      0.95688028
H      -2.71006499      0.91100564     -1.17372218
