10
b3lypvtz=-155134.01041341
C      -0.18305466     -0.33983430      0.13081878
C      -1.15420869      0.56984155     -0.01282687
O      -2.48163221      0.36639208      0.12716488
C       1.21433397     -0.00052596     -0.04584930
N       2.13953452     -0.86790241      0.09112717
H      -0.40951167     -1.36996721      0.38624272
H      -0.94474380      1.60161874     -0.26729499
H      -2.64818247     -0.55705772      0.35328396
H       1.41336123      1.04753049     -0.30353735
H       3.05410378     -0.45009527     -0.07006429
