10
b3lypvtz=-152682.8825801552
C      -2.14745352     -0.24507624     -0.61723799
N      -0.96710330      0.22278166     -0.31527897
N       0.16015765     -0.44463666     -0.20444271
N       1.12079913      0.46257948      0.12497591
C       2.30119310     -0.00393494      0.27803163
H      -2.96662024      0.44900833     -0.66441726
H      -2.25886048     -1.29882949     -0.80669964
H      -0.86147547      1.22659216     -0.13500013
H       2.53246749     -1.05976738      0.15454403
H       3.08689562      0.69128311      0.53995333
