7
b3lypvtz=-162032.63194907366
C       0.39747990      0.61641534     -0.72301383
N       1.26286638      0.18341199      0.22284123
N       0.57103728     -0.57279322      1.03091832
N      -0.83028417      0.15719784     -0.54086718
N      -0.66228258     -0.56828244      0.55346582
H       0.67304707      1.26351367     -1.53629390
H      -1.41186387     -1.07946320      0.99294953
