12
b3lypvtz=-155889.22953611
C       2.37767821      0.22556028     -0.01058099
N       1.08848122     -0.35793045     -0.32555744
C       0.08222591      0.00814400      0.34217144
C      -1.28923009     -0.54855827      0.08363517
O      -2.25413753      0.48881029     -0.08589891
H       3.06765353     -0.56975761      0.27878584
H       2.78905098      0.68759400     -0.91025357
H       2.33924285      0.97367084      0.79213585
H       0.14283162      0.76678961      1.13669036
H      -1.24822701     -1.22454870     -0.77420385
H      -1.62531091     -1.11716576      0.95390326
H      -2.04213477      0.96596478     -0.89456216
