15
b3lypvtz=-123284.58262227
C       2.47915831     -0.21340445     -0.30213357
C       1.41584874      0.33666951      0.27068456
C       0.07494628     -0.31590243      0.42493042
C      -1.05647985      0.45153347     -0.27642094
C      -2.42620752     -0.19636056     -0.08033756
H       2.44922622     -1.21909371     -0.70608832
H       3.41868178      0.31719507     -0.38553731
H       1.49596039      1.34917142      0.65962090
H      -0.16801737     -0.39118506      1.49164699
H       0.11781612     -1.33941498      0.04218054
H      -0.82898972      0.52231274     -1.34332966
H      -1.07987055      1.47903149      0.09890496
H      -2.69039432     -0.24998421      0.97822092
H      -3.20894339      0.36815920     -0.58946098
H      -2.44174813     -1.21452950     -0.47547498
