11
b3lypvtz=-168358.22238161
C       2.06497246     -0.37744110      0.07239121
C       0.83376618     -0.07550440     -0.31460307
O       0.00282189      0.72217346      0.41330652
C      -1.37566599      0.64617381      0.09409319
O      -2.03560747     -0.40449982      0.73584246
H       2.46178324     -0.02805386      1.01478925
H       2.69755459     -0.97117476     -0.56916296
H       0.42480369     -0.42236149     -1.26190949
H      -1.81866780      1.56405052      0.47035541
H      -1.48654521      0.58801282     -0.99622582
H      -1.76921559     -1.24147519      0.34122330
