13
b3lypvtz=-145816.32090512
C      -0.97992601      0.87292997     -0.23645999
C       0.49283305      1.00545489      0.23454920
C       0.51679989     -0.51759635      0.43938261
C      -0.71466929     -0.63393929     -0.49450316
O       1.73182960     -1.13630481      0.06348991
H      -1.28960504      1.47849577     -1.08581366
H      -1.68622565      1.03068208      0.57833564
H       0.71453585      1.64073516      1.09082577
H       1.15348311      1.27260123     -0.59057757
H       0.25066666     -0.77929257      1.46965497
H      -0.38508533     -0.81178221     -1.51854104
H      -1.49435765     -1.35040393     -0.23578292
H       1.68972080     -2.07157993      0.28544024
