12
b3lypvtz=-132607.6426202
C       1.01988301      1.27682388     -0.14354538
C       0.35597683     -0.00000602      0.39800760
C       1.01928407     -1.27718181     -0.14348115
C      -1.07933626      0.00027871      0.09782756
N      -2.20296520      0.00028012     -0.15126333
H       0.54899960      2.17083325      0.26332594
H       2.07495550      1.28635495      0.13114160
H       0.94734859      1.31770406     -1.23062723
H       0.44205607      0.00000583      1.48849863
H       2.07434936     -1.28723538      0.13121517
H       0.94673490     -1.31805168     -1.23056302
H       0.54794553     -2.17094091      0.26341161
