14
b3lypvtz=-133351.57921668
C       2.51275415     -0.23124146      0.07086478
C       1.32594292      0.34115012     -0.15028920
N       0.08795247     -0.27515544     -0.12813035
C      -1.09716633      0.48532083      0.24523472
C      -2.37001717     -0.27161618     -0.10744230
H       3.42265568      0.33438472     -0.05581218
H       2.60602703     -1.27254792      0.35351984
H       1.27597542      1.39021835     -0.42473260
H       0.10194191     -1.21446869      0.24378090
H      -1.06523341      1.43150457     -0.29986911
H      -1.10245831      0.73983200      1.31502996
H      -2.41219827     -0.48164215     -1.17652218
H      -3.25140394      0.30781386      0.17019223
H      -2.42140415     -1.22368960      0.42625349
