12
b3lypvtz=-132557.08979809
C       1.07282112     -0.66017300      0.14387448
N       0.96921352      0.82960134      0.02967143
C      -0.41302832      0.71102325     -0.44549748
C      -1.30407428     -0.04212709      0.49777053
C      -0.35213072     -0.80568430     -0.38351264
H       1.83722657     -1.04824670     -0.53024050
H       1.25368892     -1.05031445      1.14985099
H       1.05304343      1.32217790      0.91368945
H      -0.79205554      1.36308640     -1.22101563
H      -2.34580477     -0.10377294      0.20918766
H      -1.13287851      0.01288890      1.56850807
H      -0.68760140     -1.53016631     -1.10990135
