17
b3lypvtz=-124054.70785602
C      -2.44489463     -0.17439515      0.13070954
C      -1.00225044     -0.34964387     -0.34382393
C      -0.04914442      0.69308303      0.24621685
C       1.39844454      0.59814452     -0.25101347
C       2.13527406     -0.67274302      0.17706222
H      -3.10381501     -0.92667031     -0.30634484
H      -2.83434904      0.80842293     -0.14476510
H      -2.51594797     -0.26288980      1.21726687
H      -0.96800061     -0.28710871     -1.43646506
H      -0.66012034     -1.35523363     -0.08622526
H      -0.06022357      0.61329290      1.33924201
H      -0.43624741      1.69028219      0.01311830
H       1.40813288      0.67457589     -1.34318556
H       1.95106722      1.46720759      0.11666191
H       3.17288312     -0.65727961     -0.16097674
H       2.14372408     -0.77292258      1.26523290
H       1.67214553     -1.57118036     -0.23347064
