10
b3lypvtz=-178396.63680427254
C      -0.90695819      0.00918354     -0.31600166
C       0.40441156     -0.49953837      0.17438276
N       1.51934324      0.06129489     -0.20360804
O       2.69842939     -0.21423493      0.13215016
O      -1.55222831      0.91797768      0.58288526
H      -1.56579365     -0.83411293     -0.54754823
H      -0.76815382      0.57412360     -1.24004059
H       0.49676577     -1.30924372      0.88459634
H       1.41123732      0.83596946     -0.87525329
H      -1.73705332      0.45858077      1.40843729
