7
b3lypvtz=-164443.17548161
C      -1.05080487     -0.12313107     -0.00685879
N      -0.71383204      1.11473355     -0.04470435
N       0.68952911      1.13040050     -0.03061852
C       1.05321254     -0.09964140      0.01432903
O       0.01049495     -0.96940043      0.03252745
H      -2.03841001     -0.54930714     -0.00294188
H       2.04981032     -0.50365402      0.03826708
