11
b3lypvtz=-145049.80365005
C       2.35063558      0.23458506      0.00001059
C       1.17361908     -0.37263605      0.00000332
O      -0.00000008      0.32550456     -0.00000307
C      -1.17361928     -0.37263599      0.00000139
C      -2.35063575      0.23458517      0.00000616
H       3.25400817     -0.35488765      0.00001368
H       2.43192587      1.31193962      0.00001177
H       1.06681125     -1.45249151     -0.00000120
H      -1.06681150     -1.45249146      0.00000146
H      -3.25400836     -0.35488749      0.00000768
H      -2.43192598      1.31193974      0.00000922
