9
b3lypvtz=-167604.06125243497
C      -0.68083738     -0.13676862      0.49736512
C       0.38081405     -0.45006598     -0.52850380
C       1.64871148     -0.17870110     -0.33494811
O       2.76992834      0.05954647     -0.14551182
O      -1.61436352      0.84267116      0.05727124
H      -0.20926782      0.15700610      1.44086620
H      -1.27839622     -1.02728908      0.69265778
H       0.10688884     -0.89527076     -1.47531739
H      -1.12347778      1.62887183     -0.20387923
