8
b3lypvtz=-154385.18342225
C      -0.76682925     -0.67305653     -0.21814644
C      -0.76580384      0.67128047     -0.33766230
O       0.53519901      1.08273614     -0.44704755
C       1.25251983     -0.06538745     -0.38530269
N       0.54437148     -1.13280240     -0.25067952
H      -1.60181564     -1.34316874     -0.11180173
H      -1.52061584      1.43468974     -0.36322476
H       2.32297425      0.02570877     -0.45353779
