11
b3lypvtz=-145059.60354708
O       2.49691281     -0.77374264     -0.54882322
C       1.48894770     -0.50096736      0.05419070
C       0.23753500     -0.02039035     -0.55877640
C      -0.60987875      0.96516323      0.23089408
C      -1.07690962     -0.43709085      0.08287744
H       1.44549198     -0.60194092      1.16266227
H       0.26737007      0.08279211     -1.63432560
H      -1.09732666      1.74331663     -0.33816895
H      -0.23435394      1.28018621      1.19529703
H      -1.02378808     -1.08794686      0.94531984
H      -1.89400053     -0.64937920     -0.59114719
