14
b3lypvtz=-156658.15782064
C      -0.80079858      1.37111807      0.13270613
C      -0.48140249     -0.04253362     -0.33014920
O      -1.57449311     -0.93610096     -0.10061474
C       0.79886974     -0.60463216      0.29750182
N       1.97594201      0.16338368     -0.12016041
H      -1.68415106      1.75254963     -0.37944156
H       0.04205398      2.03386467     -0.05940703
H      -0.99658321      1.38337966      1.20992356
H      -0.35651829     -0.04396181     -1.41729649
H      -1.83637624     -0.86022072      0.82308203
H       0.71684722     -0.53053492      1.38659938
H       0.84666705     -1.67236952      0.05022374
H       2.78359346     -0.09083659      0.43443676
H       2.21048852     -0.04741041     -1.08355900
