9
b3lypvtz=-167588.86415897
O       2.12083376      0.10421093      0.12758148
C       1.02296479     -0.03738095     -0.34380615
C      -0.22996669     -0.04365797      0.46166796
C      -1.41665061      0.65208598     -0.07226665
O      -1.32438245     -0.76086157     -0.12469182
H       0.85768025     -0.17376986     -1.43270088
H      -0.10889542     -0.14838494      1.53439013
H      -2.13347404      1.05557203      0.63486825
H      -1.35602560      1.16052036     -1.02965833
