11
b3lypvtz=-142671.6762341
N      -2.58296589     -0.29703823      0.02673289
C      -1.51179257      0.12110669     -0.01081874
C      -0.14278158      0.62251189     -0.05787696
C       0.90150183     -0.50378154      0.02259848
N       2.24007466      0.07569147     -0.05368795
H      -0.00297258      1.32230661      0.77011036
H       0.00486185      1.18683756     -0.98001951
H       0.76637072     -1.16836078     -0.83109401
H       0.71444221     -1.09936127      0.92449878
H       2.49564397      0.51471949      0.82327498
H       2.93005838     -0.64280288     -0.23248132
