6
b3lypvtz=-174484.30413375
C       0.73671251      0.03586233      0.00558226
N       0.00135476      1.10024926      0.01992747
N      -1.28722020      0.59649494      0.00218598
N      -1.32384271     -0.63917188     -0.02041381
O       0.06000779     -1.09255392     -0.01938174
H       1.81298784     -0.00088074      0.01209984
