8
b3lypvtz=-180279.21952434
C      -1.78708264     -0.08846628     -0.00000698
N      -0.70219759     -0.74815786      0.00002366
C       0.51985466     -0.06554771      0.00002780
N       1.65852453     -0.58300405      0.00001739
F       0.43355029      1.28199783     -0.00007170
H      -1.83550036      0.99983141      0.00001131
H      -2.72189882     -0.64138802      0.00000369
H       1.56450393     -1.59550133      0.00006784
