8
b3lypvtz=-175271.89855354
N      -1.72333537      0.12424312      0.04979963
N      -0.82195771     -0.71157393     -0.05695973
C       0.54352269     -0.11218216     -0.00512117
N       0.58462391      1.23416610     -0.01683404
O       1.48312548     -0.86600011      0.02623327
H      -2.61995897     -0.38158778      0.01103768
H       1.47295073      1.69339422      0.06977863
H      -0.27543474      1.75376552      0.03757773
