14
b3lypvtz=-133338.58145607
C       1.75466003      0.00000003     -0.32377948
C       0.51272147      0.00000004      0.55455303
C      -0.55746150     -1.05360319      0.16557592
N      -1.28804652     -0.00000007     -0.57796255
C      -0.55746158      1.05360314      0.16557581
H       2.37059179     -0.88199971     -0.13410962
H       2.37059172      0.88199985     -0.13410975
H       1.48077630     -0.00000005     -1.38038147
H       0.79250444      0.00000010      1.60753822
H      -1.09265756     -1.44400389      1.03887736
H      -0.22681519     -1.89467942     -0.44897152
H      -2.29401544     -0.00000010     -0.46743148
H      -0.22681532      1.89467935     -0.44897169
H      -1.09265764      1.44400392      1.03887722
