13
b3lypvtz=-143438.77647685
C       1.86454404     -0.10381700     -0.42089674
C       0.79952817      0.24030414      0.62993047
C      -0.61733721      0.12175436      0.10095851
N      -1.38275073      1.09065668     -0.22334356
N      -1.08603523     -1.17154816     -0.00230440
H       2.86615572      0.01788541     -0.00710855
H       1.77598495      0.54733251     -1.29114548
H       1.77599180     -1.13480469     -0.76781931
H       0.94718752      1.26246744      0.97867014
H       0.91413276     -0.41355564      1.49861918
H      -0.93090378      1.98116933     -0.03832340
H      -1.92954697     -1.27962964     -0.54247713
H      -0.41915305     -1.91818874     -0.08865475
