13
b3lypvtz=-145818.83232354
C      -2.36744203     -0.16138087      0.00000132
C      -0.87789250     -0.34029129     -0.00000503
C      -0.02878534      0.68631928      0.00000016
O       1.32956678      0.66213749      0.00000577
C       1.95656377     -0.60902982     -0.00000329
H      -2.64205399      0.89458202     -0.00005120
H      -2.82763528     -0.62401786     -0.87769597
H      -2.82762141     -0.62391794      0.87776004
H      -0.50680399     -1.35743048     -0.00001144
H      -0.37803220      1.71220206      0.00000251
H       3.02767556     -0.42308483      0.00001592
H       1.68532690     -1.18389848     -0.89049916
H       1.68529972     -1.18392629      0.89046638
