12
b3lypvtz=-160890.82024728
F      -1.53290136     -0.71880559      0.00001263
C      -1.11836865      0.61586568     -0.00000517
C       0.38251741      0.71168348     -0.00000877
C       1.22019050     -0.28084190     -0.75454193
C       1.22019297     -0.28082178      0.75454811
H      -1.54521172      1.08561936     -0.88999001
H      -1.54520899      1.08564224      0.88996890
H       0.72804046      1.73948384     -0.00002300
H       2.09855090      0.07993282     -1.27118169
H       0.70543210     -1.09442454     -1.24567182
H       2.09855509      0.07996674      1.27117532
H       0.70543628     -1.09439134      1.24570144
