9
b3lypvtz=-191105.71340651
N       1.33154428      0.29898021     -0.84387600
N       0.80986141     -0.62360064      0.14550973
C      -0.44702442     -0.51571868      0.23355733
N      -1.29361199      0.34762090     -0.39463903
F      -1.08447230     -1.31993757      1.09297012
H       2.19566066     -0.12546211     -1.16038787
H       1.61932934      1.13604032     -0.34028618
H      -2.25213087      0.04863214     -0.47068137
H      -0.87915612      0.75344541     -1.22316673
