14
b3lypvtz=-133280.19178737773
C       2.18363769     -0.38136348     -0.07376332
C       0.97620507      0.52521981     -0.00136336
N      -0.23498547     -0.32203932     -0.34097109
H      -0.44571141     -1.13686604      0.27542923
H      -0.03925372     -0.72648239     -1.25638984
C      -1.42077974      0.51293809     -0.45222838
C      -2.40801935      0.44400703      0.42387657
H       2.12108133     -1.31942554      0.52324448
H       2.42341096     -0.68215186     -1.10140524
H       3.05713348      0.16010376      0.29287717
H       0.78749579      0.85072358      1.02431298
H      -1.34753314      1.22394451     -1.25894593
H      -3.25735531      1.10619595      0.34526053
H      -2.39532617     -0.25480410      1.25057022
