11
b3lypvtz=-145067.64441582595
C      -1.38122412     -0.35765613     -0.34079345
C      -0.20670862     -0.09746071      0.60703502
C       0.92355776      0.67155834     -0.04622660
C       2.13391947      0.19648915     -0.19216697
O       3.21031713     -0.23066403     -0.31541504
H      -1.78755697      0.57898704     -0.72715626
H      -1.06990264     -0.96178697     -1.19369527
H      -2.18639426     -0.88326216      0.17628170
H       0.17390569     -1.04548681      0.99103465
H      -0.56030624      0.46268742      1.47747585
H       0.75039279      1.66659485     -0.43637364
