10
b3lypvtz=-152712.04559977
C      -1.59182334     -0.77586976      0.01966414
C      -0.48225527     -0.01947754     -0.01138510
N      -0.40619942      1.35181146     -0.07079217
N       0.74191269     -0.75176197     -0.02218676
N       1.75712361     -0.03105293      0.02794524
H      -1.48562217     -1.84807510      0.01922704
H      -2.58260096     -0.34554085      0.03896695
H       0.50348372      1.71912698      0.16705621
H      -1.19073286      1.86987942      0.28402290
H       2.56982400     -0.65836270      0.02121554
