12
b3lypvtz=-155863.33964356317
C      -1.87309979     -0.36396144      0.10798373
C      -0.43997155     -0.31727714     -0.27577619
N       0.44523329      0.32670966      0.43345214
O       0.21014256      0.97398870      1.50351775
C       1.86519845      0.32766223     -0.01588395
H      -2.50430854      0.06149934     -0.67712126
H      -2.02455243      0.19754832      1.02637202
H      -2.20535014     -1.39437050      0.26168320
H      -0.06865512     -0.81506227     -1.15952650
H       2.40942890      0.91547828      0.71310329
H       2.24511713     -0.69136964     -0.04416635
H       1.94081720      0.77915444     -1.00279016
