11
b3lypvtz=-142664.60402662
C      -1.61340449     -0.78469568      0.15854348
N      -1.11144219      0.48154838     -0.36986088
C       0.12000049      0.94689890      0.24263712
C       1.28518273      0.05322707      0.05844571
N       2.15927012     -0.67258902     -0.12706708
H      -0.90576576     -1.61944467      0.07418386
H      -1.86645141     -0.65905846      1.21281549
H      -2.52668027     -1.05044829     -0.37186119
H      -0.99563564      0.42334643     -1.37370752
H       0.37871618      1.92701794     -0.16088489
H      -0.04012576      1.07692941      1.31525890
