12
b3lypvtz=-155889.33103577
C      -1.51667912     -0.92436386      0.16506423
C      -0.54857536     -0.04364497     -0.09316201
N      -0.64401543      1.34517482      0.03209402
O       0.68145824     -0.47049380     -0.51518158
C       1.79889433     -0.09526741      0.29633946
H      -1.30023660     -1.98034503      0.15712665
H      -2.52514649     -0.60038514      0.37586046
H      -0.26372960      1.84363921     -0.76186876
H      -1.57356365      1.66641524      0.25555402
H       2.67970316     -0.49514409     -0.20065058
H       1.88984747      0.98720129      0.39199831
H       1.71039906     -0.53549926      1.29346878
