7
b3lypvtz=-164412.48209188
C      -0.26374352      0.73919667     -0.09459570
C      -0.52649313     -0.58829577     -0.52201936
N       0.60432731     -1.21166055     -0.67497262
O       1.57207526     -0.30019163     -0.35087362
N       1.02249730      0.90101211      0.00605387
H      -0.94469173      1.54176077      0.13132889
H      -1.46397148     -1.08182159     -0.71292312
