7
b3lypvtz=-187738.10459808
N       0.88808902      0.02228063      0.09944288
N       0.36429395     -0.80842425      0.84717016
C      -1.11116013     -0.72500600      0.77215577
O      -1.76171813      0.01833257      0.10287124
O      -1.59009816     -1.65427023      1.60886259
H       1.90697506     -0.09652169      0.20635838
H      -2.55628161     -1.60659103      1.56593899
