11
b3lypvtz=-168367.99584794
C      -1.39469693      0.16545030      0.22643155
C       0.07820989      0.10323246      0.01639778
C       0.78135789     -1.00371744     -0.21425339
O       2.13592533     -1.03269165     -0.40298330
O       0.78760898      1.29865970      0.06427085
H      -1.64144847      0.58165217      1.20935565
H      -1.88064256      0.79299883     -0.52871257
H      -1.83473113     -0.82881902      0.16604952
H       0.32034724     -1.97699019     -0.26945758
H       2.46241634     -0.12657002     -0.33705609
H       0.18565341      2.02679487      0.23486725
