7
b3lypvtz=-164466.84929935
N      -2.15818312      0.07772621      0.00008064
C      -1.01039110      0.00219317      0.00000980
C       0.46247759     -0.14591585     -0.00001801
N       1.11411426      1.04018414      0.00003378
O       0.97880125     -1.23846166     -0.00006010
H       2.12063615      1.03480181      0.00005244
H       0.62117397      1.91580517      0.00008645
