14
b3lypvtz=-133337.49951051
C       2.02793818      0.26230939      0.01317952
N       0.84436181     -0.54050063     -0.27057577
C      -0.32366388     -0.13634026      0.46008524
C      -1.21356420      0.90269778     -0.16565865
C      -1.66276729     -0.53455139     -0.08718682
H       1.85589945      1.28985843     -0.31125183
H       2.87683322     -0.12757274     -0.54936403
H       2.30485329      0.29188701      1.07829053
H       1.03778581     -1.51999124     -0.10091224
H      -0.23897767     -0.09419231      1.54764182
H      -1.69016091      1.62888849      0.47795489
H      -0.91484689      1.27303979     -1.13611384
H      -2.44597355     -0.79479032      0.61106919
H      -1.66064138     -1.10301499     -1.00641602
