11
b3lypvtz=-165982.41606673
C       1.89882727     -0.06994363     -0.00841208
N       0.62242938     -0.75573156      0.00433010
C      -0.43639186     -0.05868180     -0.00195784
N      -0.57052655      1.30732492     -0.05593368
O      -1.65290703     -0.66341993     -0.00078248
H       2.03542280      0.59119008      0.86008256
H       2.70142444     -0.80499311      0.02274726
H       2.04132321      0.53621930     -0.91216508
H       0.22349114      1.85041965      0.23446150
H      -1.46645233      1.67704253      0.21436794
H      -1.46362946     -1.61120845     -0.00660621
