9
b3lypvtz=-167593.28496949
C      -1.06086812     -0.19714434     -0.12035170
C       0.01533292      0.78933399      0.33567263
O       0.03662727      1.88529157      0.80185909
C       1.05203204     -0.25814151     -0.07338669
O      -0.02208029     -1.13730761     -0.48422480
H      -1.65987370      0.12773100     -0.97542847
H      -1.71613491     -0.57157066      0.67082926
H       1.64881938     -0.66871908      0.74563051
H       1.70614541      0.03052663     -0.90059983
