15
b3lypvtz=-144175.72313863
C      -2.43283277      0.23248119     -0.02699558
N      -1.17874903     -0.50515077     -0.01132318
C      -0.00000015      0.33868703      0.00000066
N       1.17874866     -0.50515093      0.01132321
C       2.43283243      0.23248103      0.02699531
H      -3.26766253     -0.46742143      0.00850425
H      -2.54861843      0.94558592      0.80457243
H      -2.51581095      0.79712455     -0.95813267
H      -1.13707755     -1.12430279      0.78965053
H      -0.05788169      1.00063811     -0.88175217
H       0.05788148      1.00063683      0.88175443
H       1.13707662     -1.12430224     -0.78965102
H       2.51581129      0.79712368      0.95813276
H       2.54861748      0.94558640     -0.80457224
H       3.26766215     -0.46742158     -0.00850571
