10
b3lypvtz=-178432.18993484
N      -1.34187659     -0.52256186     -0.58694994
C      -0.28345206      0.20924018     -0.01147429
O      -0.57102330      1.53063706      0.16981999
C       0.90252680     -0.30358886      0.32254106
O       1.92580978      0.48333063      0.81443497
H      -1.05682859     -1.43900920     -0.90182611
H      -2.14075830     -0.60924789      0.03267285
H      -1.23602861      1.76533995     -0.48929845
H       1.06002982     -1.37547113      0.29484051
H       2.74160106      0.26143112      0.35523941
