11
b3lypvtz=-168361.16380089
C      -0.94907722      0.73767286     -0.18303781
C      -0.94909428     -0.73765673      0.18303307
O       0.37642465     -1.13596153     -0.16219751
C       1.20940411     -0.00000863     -0.00000633
O       0.37644260      1.13595013      0.16221959
H      -1.13612056      0.88311531     -1.25314788
H      -1.64841945      1.34068154      0.39374642
H      -1.13616114     -0.88309530      1.25313932
H      -1.64843822     -1.34065132     -0.39376427
H       1.83579229      0.08828374     -0.89421234
H       1.83582723     -0.08830706      0.89417375
