14
b3lypvtz=-156656.51140521
N       1.44013827     -0.76399750      0.39528259
C       1.13722162      0.38795988     -0.47051517
C      -0.10400893      1.14309796      0.01308162
C      -1.25317142      0.21456783      0.43287006
O      -1.43323647     -0.88170394     -0.45135981
H       1.67392779     -0.45716046      1.33323482
H       2.24815508     -1.26589532      0.04691676
H       1.97254894      1.09236908     -0.56961956
H       0.93772402     -0.00882731     -1.46672485
H       0.14891412      1.78511285      0.86383710
H      -0.42881458      1.80573685     -0.79252774
H      -1.08150731     -0.14700485      1.45234166
H      -2.19308534      0.76774666      0.44118875
H      -0.66244978     -1.44828072     -0.31182422
