11
b3lypvtz=-142622.0738566688
C      -0.25439954     -1.06302428      0.14190913
C       0.38366630      0.31616764     -0.01108137
C      -0.83389608      0.85708541     -0.22029174
N      -1.52775478     -0.38125221     -0.09538504
N       1.70092835      0.70931890      0.06121642
H       0.02274876     -1.78875420     -0.62720709
H      -0.15630014     -1.51008483      1.13466887
H      -1.24812324      1.83325141     -0.41634649
H      -2.47638644     -0.68187882     -0.14485354
H       2.42390422      0.04260357      0.23918256
H       1.96561259      1.66656742     -0.06181171
