12
b3lypvtz=-155867.39348027
C      -2.41684360     -0.26079256      0.00000370
C      -1.08283983      0.40628628      0.00000353
N      -0.01993963     -0.28715877      0.00000007
O       1.12308816      0.52286638      0.00000266
C       2.28160546     -0.30053779      0.00000263
H      -2.99636488      0.03531240      0.87823900
H      -2.99637121      0.03532294     -0.87822383
H      -2.30295553     -1.34309862     -0.00000316
H      -1.02613845      1.49508676      0.00001042
H       2.31701971     -0.93114847      0.89105347
H       2.31701972     -0.93114835     -0.89104825
H       3.12810010      0.38383880      0.00000276
