11
b3lypvtz=-165944.2014112
C      -1.79088526     -0.50598590      0.02702685
C      -0.42894442      0.13538754     -0.02497496
N      -0.14859300      1.38264770     -0.00044669
N       0.62124211     -0.74918237     -0.14141524
O       1.89220302     -0.17315879      0.04607451
H      -1.75639432     -1.55319759     -0.27323410
H      -2.47588780      0.01646565     -0.63990596
H      -2.19459113     -0.44616385      1.03916662
H      -0.97486061      1.96877783      0.01689412
H       0.55622301     -1.59273553      0.41287702
H       1.65929940      0.77673329      0.14042083
