13
b3lypvtz=-145830.40278875
C       1.77019265     -0.17820326      0.02444631
C       0.57673870      0.72505509      0.10751618
C      -0.71121669      0.38282961      0.03001610
C      -1.28868139     -0.98225431     -0.15851954
O      -1.72846899      1.30678398      0.11980854
H       2.41947733      0.09772648     -0.81178696
H       1.49595287     -1.22349390     -0.10752204
H       2.38111330     -0.11231367      0.92957010
H       0.79887578      1.78138891      0.24636627
H      -1.94928389     -1.22573001      0.67654766
H      -0.52174061     -1.74758326     -0.23127349
H      -1.89627529     -1.00739018     -1.06584749
H      -1.34668381      2.18318453      0.24067836
