12
b3lypvtz=-155897.92654759
C       1.78256899     -0.63763902      0.00000170
C       0.42357539     -0.02406089      0.01809716
O       0.36630348      1.36588320     -0.02527554
C      -0.73053551     -0.69365889      0.01042363
N      -1.99698391     -0.09618711     -0.08442329
H       2.33635909     -0.36313607     -0.90408431
H       2.38047901     -0.30820833      0.85876680
H       1.71931624     -1.72413384      0.04136714
H       1.19570795      1.72623037      0.30092257
H      -0.71597921     -1.77395810     -0.01124504
H      -2.70046836     -0.55250039      0.47781518
H      -1.96932417      0.89419607      0.11545100
