11
b3lypvtz=-145071.06146847
C      -2.42463253     -0.16508465     -0.00000773
C      -1.04122458      0.38938053      0.00009733
C       0.08878255     -0.32256861      0.00010283
C       1.39986325      0.33154131      0.00009848
O       2.45996154     -0.25205809     -0.00017968
H      -2.42720824     -1.25424975     -0.00007433
H      -2.97946503      0.18472433     -0.87511891
H      -2.97955185      0.18461735      0.87509140
H      -0.95834045      1.47419123      0.00016071
H       0.08520840     -1.40709220      0.00006007
H       1.36287693      1.44199856     -0.00007418
