7
b3lypvtz=-216035.35388666
C      -0.82277419      0.07419496      0.07230188
N       0.11869561     -0.01736886      0.91605034
O       1.34084111     -0.12356267      0.18021054
O      -0.75758523      0.07738825     -1.25113104
F      -2.05995511      0.18388982      0.50496361
H       1.99879675     -0.18816106      0.87786919
H       0.18198106     -0.00638045     -1.48292049
