11
b3lypvtz=-165952.46302523
C       1.97507059      0.16880743     -0.33118106
N       0.74697754      0.23283658      0.46600342
N      -0.09948800     -0.90929762      0.12771652
C      -1.27956931     -0.50314687     -0.13676068
O      -1.70346719      0.76235839     -0.10994059
H       2.66640433      0.92820910      0.03604794
H       2.45298237     -0.81499366     -0.28549932
H       1.74262091      0.39024569     -1.37225915
H       0.99871954      0.08409814      1.43834822
H      -2.04164334     -1.22107659     -0.41548582
H      -0.89176144      1.26053041      0.13862553
