8
b3lypvtz=-182679.9138627
C      -1.60930863     -0.72176341     -0.00000951
C      -0.48581274     -0.01421751     -0.00019810
F      -0.49860498      1.32281370     -0.00007740
C       0.86103911     -0.62615330     -0.00038662
O       1.88901985      0.00006059      0.00028887
H      -2.57984476     -0.24831461      0.00033616
H      -1.55689256     -1.80026993     -0.00019617
H       0.84171573     -1.73308452      0.00024676
