9
b3lypvtz=-141838.52614507533
C      -0.78592483     -0.27862560     -0.25839555
C       0.74691256     -0.37100569      0.25794485
N       1.22405546      1.11532604      0.38775792
C       0.08467542      1.41088598      0.00101204
N      -1.08184090      1.25426686     -0.38606339
H      -1.48586927     -0.69751399      0.45854998
H      -0.91618658     -0.72883697     -1.23807838
H       1.39181361     -0.86951320     -0.45970908
H       0.82236454     -0.83498342      1.23698161
