11
b3lypvtz=-163563.59963754
N       1.69282328      0.33425998      0.64619451
N       0.55688854     -0.57200451      0.71079415
C      -0.40323787     -0.17533024     -0.04788599
N      -0.34866665      0.87759126     -0.93607794
N      -1.62053587     -0.84410298      0.00040739
H       2.02608841      0.40829240      1.60178940
H       2.42858183     -0.16935924      0.15656620
H      -1.21160411      1.38949695     -1.03584713
H       0.46182294      1.45553872     -0.74678920
H      -1.55425732     -1.68370482      0.55742712
H      -2.02790319     -1.02067753     -0.90657853
