14
b3lypvtz=-156652.51765881
C       2.22644873     -0.21649266     -0.13519532
N       0.85896643     -0.23639630      0.36946466
C      -0.01617695      0.77416934     -0.22151655
C      -1.45727324      0.48284806      0.17408469
O      -1.84181471     -0.82329623     -0.21646422
H       2.22545246     -0.46945016     -1.19673046
H       2.81957354     -0.96885699      0.38499408
H       2.72851169      0.75607548     -0.02357449
H       0.86657152     -0.12729009      1.37733201
H       0.07477450      0.69641843     -1.30783497
H       0.25412049      1.80483337      0.05802473
H      -2.13301917      1.18574506     -0.31554106
H      -1.57498319      0.61672391      1.26028213
H      -1.06850908     -1.37842420     -0.04388423
