10
b3lypvtz=-131840.3937581
C       2.32506690     -0.00387987      0.00000169
C       0.88367837     -0.38302196      0.00000145
C      -0.12933315      0.48727494     -0.00000102
C      -1.49610320      0.08800221     -0.00000125
N      -2.61004222     -0.21177456     -0.00000151
H       2.46305672      1.07676682     -0.00000256
H       2.83125878     -0.41894072      0.87562326
H       2.83126103     -0.41894797     -0.87561509
H       0.65558790     -1.44361919      0.00000350
H       0.05284387      1.55589231     -0.00000347
