13
b3lypvtz=-166728.11327282
N      -0.47638191      1.29257272     -0.69460531
C      -0.29765917     -0.15009175     -0.57579355
N      -1.42821553     -0.81697956      0.07690607
C       1.05117558     -0.38464396      0.11039724
O       2.11082275      0.25726054     -0.57039864
H      -1.29390185      1.49933756     -1.25581773
H      -0.63804748      1.70236783      0.22059259
H      -0.23545988     -0.54702102     -1.59178987
H      -1.41531847     -0.64559072      1.07804367
H      -1.37690779     -1.82187410     -0.05084294
H       0.97603050     -0.03687309      1.15504625
H       1.27559030     -1.45252606      0.13798070
H       1.74827295      1.10416160     -0.86631848
