9
b3lypvtz=-165166.87233105
N      -2.14550780     -0.14776152     -0.00013739
C      -0.80852644     -0.27470242     -0.00000348
C       0.10483299      0.72976640      0.00008078
N       1.48655063      0.49684028      0.00002399
O       1.85525936     -0.67514430     -0.00015867
H      -2.58675230      0.75545811      0.00057466
H      -2.74191997     -0.95438178      0.00066031
H      -0.42599475     -1.28907528     -0.00011487
H      -0.16594372      1.77668150      0.00019067
