11
b3lypvtz=-168349.09113985
O       1.25367657     -1.07427160      0.07689659
C       0.50363579     -0.00376240      0.59749780
C      -0.04235131      1.04191109     -0.34751605
C      -0.94219658     -0.03713890      0.20957601
O      -1.37934019     -1.06898930     -0.62088482
H       2.05785977     -0.73079592     -0.32380978
H       0.77890607      0.28966805      1.60467924
H      -0.14324767      2.05837044      0.00889032
H       0.21996547      0.93833789     -1.39243456
H      -1.68448156      0.24088816      0.94645571
H      -0.62222638     -1.65421750     -0.75925046
