8
b3lypvtz=-154367.36436202
C       2.16864022      0.06403623     -0.00000418
C       0.97099112     -0.00297534     -0.00001326
C      -0.48314389     -0.14254093      0.00000520
N      -1.15136077      1.04295427     -0.00000180
O      -1.02888386     -1.22782790      0.00000174
H       3.22973965      0.11111402      0.00001955
H      -2.15704423      1.02614786      0.00002540
H      -0.66596124      1.92161780      0.00002136
