14
b3lypvtz=-154255.20105962
N       1.97486388     -0.02895976     -0.22358056
C       0.75832385     -0.65521631      0.28420299
C      -0.48142342      0.00785794     -0.32269531
N      -1.74001917     -0.69366087     -0.03212407
N      -0.51371462      1.40068312      0.10474028
H       2.79602749     -0.38687148      0.24769158
H       1.92700807      0.96914614     -0.05424641
H       0.76192909     -1.71120625      0.00377895
H       0.65164197     -0.61907328      1.38381956
H      -0.36202477      0.00706223     -1.40834194
H      -1.76584709     -1.59115427     -0.50503657
H      -1.81674473     -0.88518341      0.96276533
H      -1.30421779      1.86907473     -0.32281369
H      -0.65675377      1.45080646      1.10928687
