9
b3lypvtz=-141907.15585849
C      -1.06605854      1.24447441      0.01426006
C      -0.42633511      0.06721081     -0.00033693
N      -1.02074306     -1.19055273     -0.07585794
C       1.01178275      0.04087311     -0.00707841
N       2.16282052     -0.00432559      0.00626440
H      -2.14614642      1.29356134      0.02839822
H      -0.51336273      2.16911776     -0.00481363
H      -1.99985477     -1.21143922      0.16272040
H      -0.50136963     -1.94416589      0.34570884
