10
b3lypvtz=-178452.24982512
N      -1.59703397      0.58313429     -0.65456139
C      -0.49732470     -0.18713856     -0.21467346
O       0.74445514      0.54816682     -0.52391759
C       1.87789217     -0.04905706     -0.16127232
O       1.97795013     -1.11663036      0.38598544
H      -2.19324833      0.94325341      0.06981699
H      -2.12098294      0.19599148     -1.41971943
H      -0.49931143     -0.35543775      0.86074686
H      -0.42305620     -1.14882158     -0.71933544
H       2.73066013      0.58653931     -0.43906966
