11
b3lypvtz=-142635.10698999
N       1.76256220     -0.52777304      0.00015567
C       1.07908042      0.53322611     -0.00032427
N      -0.34262879      0.73397118     -0.00098933
C      -1.16230442     -0.24940845      0.73596661
C      -1.16212001     -0.25143872     -0.73535414
H       1.18669805     -1.37239136      0.00013910
H       1.60795040      1.48460756     -0.00029622
H      -1.98815945      0.18230003      1.28574460
H      -0.64128746     -1.05465293      1.24169163
H      -0.64114125     -1.05813711     -1.23880862
H      -1.98781368      0.17886174     -1.28647203
