9
b3lypvtz=-165155.44842695
C       1.86105349      0.66225197     -0.00000521
C       1.23123525     -0.50248898     -0.00000048
O      -0.12307994     -0.75746441     -0.00002571
N      -0.91257057      0.40606743     -0.00000353
N      -2.08722787      0.07398441     -0.00002391
H       1.34944006      1.61058108      0.00000857
H       2.94057018      0.65863651     -0.00002109
H       1.74768080     -1.45244014      0.00001749
H      -2.61139239      0.95498313     -0.00002013
