8
b3lypvtz=-151951.89546370078
C      -0.68055482     -0.48797606      0.40576598
N      -1.92284204     -0.20675783      0.37714013
C       0.42456149      0.42374838      0.62023980
N       1.64975904     -0.02759820      0.61864961
N       2.69838157     -0.44489499      0.61211905
H      -0.39480054     -1.53057246      0.25330622
H      -2.08766954      0.78982330      0.52925016
H       0.31316484      1.48422787      0.78721089
