13
b3lypvtz=-122506.3102134
C      -1.92646670      0.39719347     -0.19148194
C      -1.07197500     -0.56239877      0.14513088
C       0.35734672     -0.39257154      0.50205249
C       1.42289179     -0.39679159     -0.57707784
C       1.13019684      0.85867047      0.19828730
H      -2.94986974      0.16815466     -0.45727481
H      -1.64076195      1.44135302     -0.21155115
H      -1.42634997     -1.59003879      0.16262907
H       0.64447992     -0.91285197      1.40942919
H       1.08360663     -0.44071825     -1.60271929
H       2.34577196     -0.92524002     -0.38145761
H       0.62451287      1.66011688     -0.32092040
H       1.85621162      1.19221144      0.92663011
