13
b3lypvtz=-171729.12029977
C       2.26912569     -0.16267436      0.07629389
N       0.89042097     -0.27267400     -0.37711925
C      -0.00057841      0.70112507      0.23076686
C      -1.42187934      0.49779216     -0.23441387
F      -1.89088914     -0.74448760      0.21601582
H       2.68856471      0.79117646     -0.25152309
H       2.86616549     -0.95633274     -0.37280442
H       2.38775353     -0.21897139      1.16994644
H       0.53755266     -1.20249611     -0.18597889
H       0.31277605      1.70589821     -0.07255151
H       0.01960353      0.68088521      1.33372454
H      -1.47856601      0.48854547     -1.32386085
H      -2.08492573      1.26461264      0.16964534
