14
b3lypvtz=-133350.23628993
C      -2.00621513     -0.54227959      0.09643177
N      -1.14524559      0.16407598     -0.49259471
C      -0.15231120      0.86311654      0.30672389
C       1.26859571      0.54530260     -0.16737113
C       1.67944941     -0.90881171      0.05573340
H      -2.75910440     -1.06795987     -0.48755761
H      -2.04778779     -0.66081064      1.18721374
H      -0.25585472      0.63675136      1.37947019
H      -0.33322460      1.93358869      0.17509755
H       1.95718273      1.20981543      0.36125151
H       1.34021806      0.79359099     -1.22865716
H       1.02523192     -1.59138034     -0.48827413
H       1.63359630     -1.17454895      1.11486702
H       2.70090431     -1.08383950     -0.28536032
