11
b3lypvtz=-165946.82520402
N       2.25665945      0.05054401     -0.20288924
N       0.95788772      0.37720486     -0.47941129
C       0.02957893     -0.37453557     -0.04068651
C      -1.39981053     -0.08851678     -0.37621353
O      -2.18688152      0.16429596      0.79094183
H       2.84218367      0.87036353     -0.22951824
H       2.39823201     -0.50078425      0.63982652
H       0.23533417     -1.23381561      0.60773697
H      -1.86399014     -0.95870914     -0.84491819
H      -1.43739659      0.74402753     -1.08424758
H      -1.83169717      0.94992546      1.21927926
