8
b3lypvtz=-203563.10244094
C       0.18417771     -0.26061215      0.38923201
N      -0.80660471      0.51493610      0.24888120
O      -2.01692414     -0.19700033      0.08770274
N       1.44902873      0.16783094      0.71458807
F       0.10794114     -1.59209263      0.29930324
H      -2.65283911      0.51961137      0.00558799
H       1.54665700      1.17092639      0.67814371
H       2.18856339     -0.32359968      0.23360676
