7
b3lypvtz=-187716.30461776
N       0.87308623     -0.00409167      0.07741760
N       0.47190363      0.46535600     -0.96628173
O      -0.97504115      0.44235698     -0.91521489
C      -1.56037177      0.94952721     -2.04295640
O      -1.02161255      1.38420221     -3.00964119
H       1.89734526      0.02723279      0.00810288
H      -2.64600965      0.87921650     -1.88642628
