13
b3lypvtz=-143411.58790951
C       2.25746450     -0.46487699     -0.22700902
C       1.21367428      0.59025996      0.16448915
C      -0.14437043      0.00470029      0.39784539
N      -1.13918746      0.32551959     -0.32355609
N      -2.34010787     -0.31615218     -0.11062459
H       3.24108898     -0.00995643     -0.35313915
H       2.34592074     -1.23941740      0.53783626
H       1.98539688     -0.95155253     -1.16450868
H       1.54679671      1.09767421      1.07651879
H       1.12741885      1.34868750     -0.61419513
H      -0.24612279     -0.73281437      1.20570565
H      -2.47401774     -0.65495035      0.83951186
H      -3.09991764      0.28275271     -0.39571446
