11
b3lypvtz=-142597.07996607092
C       1.69173612     -0.23304878     -0.50207647
N       0.54979270     -0.07819528     -1.02997723
N      -0.47768580      0.06548295     -0.03977607
C      -1.05536895     -1.07959374      0.31396978
C      -0.72401134      1.32509197      0.30957009
H       2.53590986     -0.35164045     -1.17240219
H       1.85565893     -0.25149847      0.57360548
H      -1.94203933     -1.03661745      0.92247824
H      -0.70206347     -1.98372937     -0.14219364
H      -0.14703342      2.09929067     -0.15734771
H      -1.58489530      1.52445794      0.92414972
