9
b3lypvtz=-193484.21508794
O       1.61772428     -0.54555758      0.07146140
N       1.15581293      0.78132432     -0.03680570
C      -0.07471670      0.80375943     -0.34349042
C      -0.94311517     -0.39452019     -0.56623150
F      -2.22969187      0.02225315     -0.88450446
H       2.54450502     -0.42997386      0.30290049
H      -0.52136647      1.78554473     -0.44951100
H      -0.98849894     -1.01584427      0.33122865
H      -0.56065308     -1.00678572     -1.38624746
