10
b3lypvtz=-155095.54263312
C      -2.31027284      0.20567862      0.00000248
C      -1.12437267     -0.38320630      0.00000041
O       0.03448776      0.35006831      0.00000001
N       1.16445892     -0.47722084     -0.00000020
C       2.23124477      0.20531422     -0.00000016
H      -2.41374557      1.28129195      0.00000449
H      -3.20292018     -0.39994400      0.00000169
H      -0.96464987     -1.45258882     -0.00000162
H       2.24063077      1.29156518      0.00000224
H       3.15699590     -0.35347330      0.00000166
