13
b3lypvtz=-143432.66084482
C      -1.91957828     -0.12725059     -0.00464146
N      -0.63156377     -0.79266612      0.01990749
C       0.43095593     -0.09221575      0.00654876
C       0.49873084      1.41831053      0.00741856
N       1.65644636     -0.73305075     -0.07789989
H      -2.05303597      0.58493773      0.81972620
H      -2.70670505     -0.87557105      0.08038657
H      -2.09116662      0.42164947     -0.93929437
H      -0.01688584      1.82303263      0.87965471
H      -0.00294322      1.81710758     -0.87606820
H       1.52395621      1.78489424      0.00605010
H       2.44688067     -0.27392808      0.34276938
H       1.60851273     -1.72670085      0.08969015
