9
b3lypvtz=-165191.70388494
C      -1.97537782      0.20520762      0.34616601
N      -0.91927565     -0.49804625      0.37184152
N       0.25354729      0.26404996      0.28295919
C       1.29217013     -0.46838761      0.31051061
O       2.52049176      0.05221514      0.23852294
H      -1.95445326      1.29109913      0.26283042
H      -2.92642396     -0.30982054      0.41056029
H       1.28232652     -1.55095411      0.39239640
H       2.42699500      1.01463664      0.16861593
