12
b3lypvtz=-132584.68114493
C      -2.19588322     -0.47766077     -0.19961484
C      -1.22596694      0.42290524     -0.11696823
C       0.04076554      0.25160205      0.67521030
C       1.27921336      0.35993879     -0.18510020
N       2.22546474     -0.47190698     -0.29231727
H      -2.13828193     -1.42632543      0.32117297
H      -3.08579223     -0.29735209     -0.78774408
H      -1.32494157      1.36009227     -0.65732596
H       0.03880731     -0.70378022      1.20424744
H       0.09684717      1.04604491      1.43112584
H       1.35368036      1.27539771     -0.77888648
H       2.05905842     -1.29231647      0.29606153
