12
b3lypvtz=-179201.77161988
N       1.37118181     -0.02873533     -0.23057769
C      -0.02353682     -0.32558403     -0.58815556
O      -0.48525633      0.66472309     -1.47550434
C      -0.83859814     -0.32545863      0.70315072
O      -0.74482992      0.94883285      1.32336987
H       1.88599966      0.20092441     -1.07240333
H       1.81930116     -0.83424348      0.19353128
H      -0.14368885     -1.27787853     -1.11638578
H      -0.66195793      1.45111659     -0.94085745
H      -1.89042316     -0.49870724      0.47846928
H      -0.49017100     -1.12459269      1.37036762
H       0.20197953      1.14970299      1.35509538
