12
b3lypvtz=-155900.98027852
C       2.03341661      0.01844058     -0.02433202
C       0.70565595     -0.68020803      0.02857122
C      -0.47915835     -0.05650799      0.00811648
N      -0.68637087      1.31635685     -0.06414270
O      -1.68779222     -0.70366222      0.00525330
H       2.74613940     -0.54282425     -0.63233932
H       2.49273442      0.14317659      0.96315445
H       1.95011762      1.00978819     -0.47516282
H       0.70187508     -1.76142379      0.09713843
H      -1.63054802      1.58088022      0.17049180
H      -0.00343565      1.87102604      0.42535415
H      -1.52970897     -1.64509920     -0.11589496
