10
b3lypvtz=-155146.20382611
C      -0.48904217      0.46736960     -0.28981599
C       0.53979019     -0.35157243      0.02010308
N       1.85423511     -0.14442574     -0.23828342
C      -1.84391968      0.07984803      0.03059733
O      -2.84161314      0.73647748     -0.19467487
H      -0.33577125      1.42297923     -0.77759906
H       0.32667480     -1.29669877      0.50933871
H       2.16809944      0.74268908     -0.59091769
H       2.55012610     -0.74306150      0.16488003
H      -1.92857938     -0.91360500      0.52717100
