14
b3lypvtz=-156600.1859038266
C       1.48307271     -0.06835156      0.52886399
C       0.50619789      0.12493068     -0.63204066
C      -0.58585078     -0.88843894     -0.71785918
N      -1.58877384     -0.50489821      0.40193958
H      -2.48090407     -0.94698760      0.21076877
H      -1.71338465      0.51518378      0.48134527
H      -1.26561281     -0.85665037      1.29774347
O      -0.07338069      1.49098082     -0.53464067
H       2.26222040      0.70018696      0.53656372
H       0.97412697     -0.01877802      1.49670511
H       1.96326430     -1.04264709      0.44945695
H       1.06093937      0.06285321     -1.57323221
H      -1.16528742     -0.68779653     -1.62437745
H       0.62337260      2.12041285     -0.32123670
