9
b3lypvtz=-193509.04552487
N      -1.74674385     -0.49819007     -0.07038201
C      -0.44397953     -0.03186567      0.02722917
F      -0.36637782      1.33518977     -0.03392837
C       0.69951431     -0.70755284      0.07735511
O       1.94534108     -0.15226509     -0.02419676
H      -2.30477548     -0.38539511      0.76679125
H      -1.81602505     -1.43604599     -0.43197140
H       0.71557773     -1.78137135      0.17862977
H       1.84566560      0.80398334     -0.10518177
