13
b3lypvtz=-122507.02878705
C      -2.51434832      0.32182716      0.12429462
C      -1.30931015     -0.08733619     -0.15103477
C      -0.10294351     -0.49811828     -0.41792670
C       1.08855627     -0.35313956      0.49801749
C       2.21343442      0.48114097     -0.12482715
H      -3.23235952     -0.32378962      0.61733593
H      -2.84529829      1.32194575     -0.13192337
H       0.07734852     -0.97467144     -1.37928444
H       0.76782425      0.09286315      1.44025517
H       1.47255960     -1.35050524      0.73529158
H       2.55171070      0.04571496     -1.06728884
H       1.87721658      1.49833518     -0.33031474
H       3.07347145      0.53605515      0.54464023
