10
b3lypvtz=-152696.62257152
C      -1.84963793     -0.64846392     -0.00001084
C      -1.07553647      0.63083451      0.00006004
N       0.18580113      0.83503032      0.00019602
N       0.93353679     -0.37377408      0.00045112
N       2.14112951     -0.11507346     -0.00027142
H      -1.21152056     -1.52439645      0.00025278
H      -2.50533981     -0.67053124      0.87464457
H      -2.50481934     -0.67070420     -0.87505400
H      -1.66844590      1.54458971     -0.00014048
H       2.61395759     -1.02840621      0.00010621
