11
b3lypvtz=-145036.50246351
C       2.21108718      0.06658494     -0.10348441
C       1.03374087     -0.01415067      0.10589927
C      -0.40287299     -0.06668495      0.37617234
C      -1.11889220      1.18244471     -0.14553360
O      -0.91746781     -1.25944110     -0.22582478
H       3.25378265      0.12669744     -0.29236853
H      -0.53257506     -0.12089373      1.46520537
H      -2.18339721      1.12982530      0.09370969
H      -0.71031795      2.08347113      0.31295368
H      -1.00402383      1.25314026     -1.22645769
H      -1.85376666     -1.31607533     -0.00818134
