12
b3lypvtz=-132562.43332992
C       1.98525432      0.35126519     -0.01914208
C       0.82772402     -0.63354538     -0.20499971
C      -0.43104755     -0.18984847      0.49856945
C      -1.75404266     -0.29526607     -0.07897208
N      -1.32820905      0.87405867     -0.18770483
H       1.72781880      1.33121416     -0.42301807
H       2.88653923      0.00071163     -0.52423665
H       2.22521718      0.47956210      1.03857190
H       1.11682596     -1.61812081      0.17832997
H       0.61590115     -0.76427621     -1.26892446
H      -0.34348016     -0.06424365      1.57502913
H      -2.63363124     -0.86566717     -0.34886957
