10
b3lypvtz=-181041.97301524
N       1.96564940      0.07232120      0.07885876
C       0.76024083     -0.62984664     -0.00194244
C      -0.44265246     -0.06308970     -0.00942529
N      -0.68366396      1.31152793     -0.01179357
F      -1.55550424     -0.87400427      0.01973489
H       1.84615527      1.05872021     -0.10900521
H       2.70360998     -0.32162820     -0.48601901
H       0.83157876     -1.70851013      0.01932663
H      -1.08416839      1.64356498      0.85922218
H      -1.29317618      1.59660963     -0.77027595
