9
b3lypvtz=-165202.32957189
N       1.55809838     -0.80300190     -0.19977460
C       1.19692352      0.33102151      0.19452319
O       0.00000166      0.99314058     -0.00000277
C      -1.19692105      0.33102321     -0.19452914
N      -1.55810091     -0.80299527      0.19977830
H       0.84195946     -1.30078790     -0.72569436
H       1.87214871      0.98391149      0.73837305
H      -1.87214188      0.98390946     -0.73838895
H      -0.84196588     -1.30077718      0.72570729
