15
b3lypvtz=-146596.56031774
C      -1.48512993     -0.00020136     -0.35946902
C      -0.00465203     -0.00000235      0.01150242
C       0.68889350      1.26214281     -0.51038807
C       0.68923531     -1.26194416     -0.51042541
O       0.01600338     -0.00001881      1.45132549
H      -1.61415918     -0.00019358     -1.44245709
H      -1.97602900     -0.88355106      0.04964163
H      -1.97627684      0.88299072      0.04968426
H       0.64721336      1.31722653     -1.59985830
H       0.21054166      2.15153482     -0.09942920
H       1.74192447      1.27470383     -0.21732921
H       0.64756119     -1.31701154     -1.59989667
H       1.74227236     -1.27422500     -0.21737715
H       0.21112914     -2.15147652     -0.09948456
H       0.93415761      0.00008667      1.74140190
