9
b3lypvtz=-188506.17194589
N       1.47383294      0.06227973      0.07559784
N       0.38866549     -0.75161204     -0.46207560
C      -0.71845418     -0.20019399     -0.14341076
O      -1.87575860     -0.75271475     -0.51893157
O      -0.85633178      0.92853401      0.56169840
H       2.03195747     -0.56102497      0.65103447
H       2.06558529      0.29690422     -0.71555326
H      -2.59276564     -0.19824071     -0.18868600
H       0.08316900      1.17596848      0.74032649
