12
b3lypvtz=-155900.55886198
C       1.82320923     -0.52743570      0.00004442
C       0.47342510      0.13556218     -0.00002200
N       0.24436652      1.38316923      0.00000361
C      -0.73551286     -0.77523090     -0.00013493
O      -1.94511195     -0.06855481     -0.00002028
H       2.62741151      0.20730000     -0.00021363
H       1.93509320     -1.16871386     -0.87731985
H       1.93522348     -1.16822545      0.87775060
H       1.09623015      1.94056075      0.00006089
H      -0.67326903     -1.43177885      0.87912078
H      -0.67325816     -1.43151159     -0.87959478
H      -1.69111921      0.87011999     -0.00004383
