9
b3lypvtz=-167619.59851251
O       0.46347249      1.64066760      0.51794938
C       0.91214739      0.81892836     -0.29068760
C       0.32601349     -0.47025983     -0.51881483
C      -0.78445415     -0.83409284      0.17934172
O      -1.37616653     -0.06864578      1.07300147
H       1.81020990      1.07910940     -0.87350061
H       0.76054720     -1.14759992     -1.23760824
H      -1.26667214     -1.79661250      0.04509602
H      -0.84499764      0.77850552      1.10522270
