12
b3lypvtz=-132587.28635719
C       0.66297696      1.05439187     -0.00069830
C      -0.66297617      1.05439259     -0.00069817
C      -1.20371833     -0.34722520     -0.02389960
N      -0.00000081     -1.18087768      0.15294252
C       1.20371762     -0.34722652     -0.02389964
H       1.29841855      1.92867664      0.01080976
H      -1.29841677      1.92867805      0.01080979
H      -1.73335593     -0.54825062     -0.96730421
H      -1.92689658     -0.52122628      0.78159848
H      -0.00000125     -1.98018995     -0.46144286
H       1.73335502     -0.54825259     -0.96730424
H       1.92689569     -0.52122831      0.78159846
