12
b3lypvtz=-132574.1408181
C      -1.78640977      0.02516880     -0.24933023
C      -0.45446175      0.00816260      0.48700346
C       0.62129289      0.97606858      0.06271173
N       1.53143477      0.15345207     -0.30847249
C       0.64075039     -1.00476909      0.02344181
H      -2.37253283      0.90744881      0.01539071
H      -2.38086217     -0.85492915      0.00386800
H      -1.63835982      0.03247868     -1.33089641
H      -0.61848157     -0.00510125      1.56777812
H       0.69222325      2.06276492      0.04630170
H       0.38657283     -1.59773081     -0.85607093
H       1.06245377     -1.65572616      0.79022853
