11
b3lypvtz=-142661.00303841
C       1.86440996     -0.16551322     -0.21341773
N       0.81102860     -0.51062538      0.39212145
C      -0.39846530      0.15236872      0.08223219
C      -1.54306749     -0.79959702     -0.14187729
N      -0.43860735      1.42236719      0.08342291
H       2.80685520     -0.63910206      0.05082503
H       1.87486766      0.60105653     -0.99206411
H      -2.46099384     -0.26460351     -0.37854839
H      -1.69743874     -1.40828504      0.75027000
H      -1.31020271     -1.48719204     -0.95770119
H      -1.38554899      1.75127485     -0.09745186
