16
b3lypvtz=-134115.6752892
C       2.01597048     -0.06753365      0.09279881
N       0.72548332     -0.57189189     -0.35876510
C      -0.44263466      0.00038356      0.31735288
C      -0.66174618      1.45033524     -0.11652694
C      -1.66529004     -0.85594753     -0.00272103
H       2.81194233     -0.65304033     -0.36799735
H       2.15366925      0.96713977     -0.22301376
H       2.15164051     -0.10358667      1.18583788
H       0.70624278     -1.57800386     -0.24790710
H      -0.29819585     -0.00421069      1.41255320
H       0.18606676      2.08468133      0.14342915
H      -1.54408816      1.86618085      0.37315288
H      -0.80527072      1.50124958     -1.19756215
H      -2.55626209     -0.46177668      0.48742886
H      -1.52653531     -1.88519899      0.33758024
H      -1.84315042     -0.87589702     -1.07961746
