11
b3lypvtz=-142634.98599989
C       2.29363813     -0.12745105     -0.00015895
C       0.81624599     -0.32313831      0.00050067
C      -0.07721654      0.66626099      0.00025243
N      -1.49781127      0.52584993      0.00153330
N      -1.92381428     -0.64318753     -0.00187933
H       2.74622949     -0.60270319     -0.87527892
H       2.74697329     -0.60154471      0.87520257
H       2.56751913      0.92749837     -0.00098402
H       0.44292955     -1.34156758      0.00132723
H       0.22696573      1.70534510     -0.00028854
H      -2.94974022     -0.57798600     -0.00008443
