14
b3lypvtz=-133280.27975793087
C      -1.77919475     -0.00849731     -0.46317583
C      -1.19844458     -0.15007798      0.91525197
C      -0.32978201     -0.38608064     -0.31154321
C       0.70057442      0.62842346     -0.67070400
N       1.94816602      0.27020065      0.17171388
H       1.70363652      0.41631129      1.14790536
H       2.69724345      0.91804958     -0.05235340
H       2.32944032     -0.69565314      0.10558376
H      -2.47309916     -0.76550669     -0.80264019
H      -1.97772660      0.99224930     -0.81867454
H      -1.50293901     -1.00216522      1.50926891
H      -1.02464065      0.76284510      1.47000604
H      -0.13644104     -1.45291883     -0.50065722
H       1.04320708      0.47282043     -1.69998152
