8
b3lypvtz=-177696.26015216
C      -0.69880216     -0.61424170     -0.27528567
N      -1.87667856     -0.17332562     -0.37302071
C       0.49619809      0.29587427     -0.13815876
O       0.43227038      1.49709848     -0.11145434
O       1.64282105     -0.40430418     -0.04941283
H      -0.50500635     -1.68454819     -0.28713096
H      -1.86035959      0.85193940     -0.34283593
H       2.36955713      0.23150753      0.03642975
