13
b3lypvtz=-145826.46702423
C       2.29042042     -0.39883901     -0.32730234
C       1.23394049      0.52545374      0.29197967
C      -0.11870199     -0.11490519      0.41121735
C      -1.20964427      0.33060275     -0.20390610
O      -2.46399243     -0.20532049     -0.14654471
H       2.00934602     -0.68718642     -1.34140830
H       2.40329417     -1.31407266      0.25782621
H       3.26532403      0.09055332     -0.36941599
H       1.15111142      1.43795530     -0.30400170
H       1.58033480      0.83963464      1.28261834
H      -0.19007177     -1.00511842      1.03364899
H      -1.20007365      1.20877133     -0.83795578
H      -2.45144924     -0.98348289      0.42243837
