13
b3lypvtz=-122488.86403185
C      -1.94626836     -0.00000066     -0.05273746
C      -0.52908472     -0.00000038      0.46940338
C       0.53378775      0.74483755     -0.27919885
C       1.73357755      0.00000077      0.21114457
C       0.53378835     -0.74483664     -0.27919952
H      -2.49092878      0.88063447      0.29279519
H      -2.49092812     -0.88063653      0.29279434
H      -1.96558611     -0.00000015     -1.14443152
H      -0.45505598     -0.00000085      1.55830418
H       0.43697686      1.42278119     -1.10997847
H       1.96331215      0.00000044      1.27571535
H       2.60618610      0.00000142     -0.43214041
H       0.43697831     -1.42277960     -1.10997980
