15
b3lypvtz=-146586.0938927
C      -1.96377371     -0.11549695      0.09763244
O      -0.70741310     -0.54989209     -0.37615930
C       0.41915503      0.00070785      0.30821208
C       1.59894414     -0.90730640     -0.00262378
C       0.68233032      1.44759656     -0.10634885
H      -2.08199616     -0.32317141      1.16904487
H      -2.13096646      0.95481078     -0.06763368
H      -2.72200545     -0.67083531     -0.45255041
H       0.21724599     -0.03019274      1.38886694
H       1.38763122     -1.92907111      0.31201167
H       1.79539656     -0.91410985     -1.07617769
H       2.49782380     -0.56244281      0.51053717
H       1.55040437      1.84483737      0.42290686
H      -0.16529130      2.09516130      0.11953386
H       0.87795873      1.50013980     -1.17891919
