9
b3lypvtz=-165162.20144545127
C      -1.23972158      0.09301666      0.01498076
O      -0.33782722     -1.00510311      0.01474255
C       1.00286197     -0.70228390     -0.00553246
N       1.46613886      0.49510541     -0.02407632
N       1.89019128      1.56520965     -0.04078013
H      -2.23676763     -0.33842129      0.03179709
H      -1.10235813      0.72253306      0.89884773
H      -1.12462204      0.70464248     -0.88452241
H       1.68210450     -1.53469896     -0.00545682
