10
b3lypvtz=-183446.10808217
C       2.03228963      0.08076405      0.00000331
C       0.72548932     -0.65160502     -0.00000079
C      -0.45707042     -0.05939566     -0.00000086
O      -0.69301936      1.26792132     -0.00000839
F      -1.60978193     -0.76548822     -0.00000151
H       1.88446044      1.15941231      0.00002431
H       2.62986256     -0.17626197     -0.87851728
H       2.62987452     -0.17629533      0.87850586
H       0.71930708     -1.73214244     -0.00000726
H      -1.64577285      1.41227695      0.00004361
