9
b3lypvtz=-193510.6487802
C       0.39204970      0.07494574      0.63076508
C      -0.86036798      0.27712273      0.24512541
O      -1.26539495      0.43683695     -1.03741433
F      -1.87033032      0.37827445      1.14164566
N       1.46382135     -0.18610937     -0.24292630
H       0.60684200      0.04477899      1.68836564
H      -1.99718120     -0.16466752     -1.22749652
H       2.30228516      0.31884783      0.00844721
H       1.22827623      0.00809807     -1.20651185
