11
b3lypvtz=-145041.69106324
O       1.61888872     -1.10285943      0.15621879
C       0.26092604     -0.74162932      0.29434732
C      -0.09553582      0.53335540      1.03772949
C      -0.77257839      1.05124840      0.00971003
C      -0.47960886     -0.09564450     -0.93833600
H       2.11876051     -0.31285385     -0.07650451
H      -0.24192037     -1.63442895      0.66811340
H       0.09940788      0.86294624      2.05004883
H      -1.36615359      1.94873787     -0.10621126
H       0.19630242      0.13552256     -1.76328366
H      -1.33858855     -0.64459442     -1.33183243
