8
b3lypvtz=-205976.82674997
C       0.48141833      0.48247130     -0.23629103
C      -0.47929234     -0.36435586      0.11283646
O      -1.82159873     -0.25016194      0.00461512
F      -0.17361520     -1.54771562      0.66918894
O       1.82676748      0.25496060     -0.07556607
H       0.25783305      1.43785981     -0.68474403
H      -2.04209974      0.59848652     -0.39367829
H       1.95058714     -0.61154481      0.32837951
