14
b3lypvtz=-133340.95708771
N       2.00749084      0.38899735     -0.02464529
C       0.92321639     -0.59227351     -0.16696854
C      -0.34635738     -0.10361445      0.48384816
C      -1.68486304     -0.53132852     -0.05562121
C      -1.22138668      0.89348032     -0.21864492
H       2.21900204      0.53286459      0.95681907
H       2.85740930      0.03603042     -0.44954836
H       1.17335435     -1.58280884      0.24181541
H       0.74174022     -0.73267246     -1.23611746
H      -0.28390886     -0.00510499      1.56279822
H      -1.69541082     -1.16377791     -0.93370801
H      -2.48166910     -0.73596980      0.64598915
H      -1.70646414      1.65987660      0.36973295
H      -0.90915112      1.21900519     -1.20160017
