9
b3lypvtz=-193510.2480903
N      -1.72171316     -0.53718201     -0.09100493
C      -0.43444211     -0.02484947      0.00078762
O      -0.43463155      1.33428941     -0.01187119
C       0.69109878     -0.74267988      0.03723870
F       1.88799690     -0.06972105     -0.02294605
H      -1.77314445     -1.53570078      0.04089200
H      -2.37548608     -0.05213235      0.50926672
H       0.48215769      1.63045638      0.05286678
H       0.78014497     -1.81423923      0.07349734
