9
b3lypvtz=-167591.90918634
C       0.98523771      0.66129771      0.00133088
C       0.98525126     -0.66127777      0.00132964
O      -0.30901035     -1.15367681     -0.00881260
C      -1.15626155     -0.00001091      0.00145517
O      -0.30903292      1.15367057     -0.00881013
H       1.78285146      1.38056974      0.00558708
H       1.78287893     -1.38053511      0.00558408
H      -1.78887989     -0.00001683     -0.89111118
H      -1.76732064     -0.00001858      0.90965806
