8
b3lypvtz=-175248.23067830692
C      -1.41102172      0.06543279     -0.25965563
O      -1.47600796      1.16172509     -0.78556193
N      -0.23995662     -0.60904865      0.07721949
N       0.79444817      0.11482088     -0.25682655
N       2.00986778     -0.15763961     -0.11205053
H      -2.30075072     -0.51672939      0.00872377
H       0.57099039      1.02440704     -0.69463577
H       2.05243067     -1.08296816      0.33108942
