7
b3lypvtz=-192756.16261366
N      -1.49982943     -0.84499763     -0.00002192
C      -0.51391146     -0.07586544     -0.00014637
F      -0.58571715      1.26411616     -0.00002000
C       0.89280227     -0.60989303     -0.00004718
O       1.86529322      0.09139721      0.00012090
H      -2.38963246     -0.34706566      0.00008024
H       0.92821901     -1.71186461     -0.00005967
