12
b3lypvtz=-155865.37040227276
C      -0.78347871      0.66449711     -0.03223128
C       0.64746851      0.84585438     -0.41968694
C       1.58784441     -0.14912882     -0.31760553
O       1.42115528     -1.35076266      0.10546725
N      -0.97067693     -0.75738684      0.46562541
H      -1.12425431      1.31349364      0.78521697
H      -1.50160910      0.78951649     -0.85329860
H       0.92369416      1.82038167     -0.79514419
H       2.60236776      0.13947966     -0.64353958
H      -0.27242003     -0.94553695      1.19530417
H      -0.60545196     -1.40553109     -0.24270378
H      -1.92463910     -0.96487657      0.75259610
