16
b3lypvtz=-134109.61324648
C      -2.04337510     -0.03421749     -0.16798233
C      -0.71755121     -0.61670545      0.31044838
N       0.45295335      0.00149998     -0.30825054
C       0.65150356      1.38153306      0.10484548
C       1.65311259     -0.78561408     -0.07774328
H      -2.18214523      0.99895811      0.15119916
H      -2.87385934     -0.61366468      0.23884104
H      -2.10145601     -0.06523279     -1.25674722
H      -0.66267608     -0.55753635      1.41369320
H      -0.69106562     -1.67875350      0.05734567
H       1.51244083      1.79929954     -0.41836666
H       0.83279595      1.48021207      1.19067722
H      -0.21560707      1.98892138     -0.14915603
H       1.92599515     -0.85638178      0.99065023
H       2.49553804     -0.33935556     -0.60814969
H       1.51272718     -1.79851045     -0.45725860
