8
b3lypvtz=-154380.42008568
C       0.37227241     -0.35902768      0.06014971
C      -0.63201580      0.45525760     -0.29505225
O      -1.93661335      0.26156940     -0.04630802
C       1.72056558     -0.05857153     -0.25433355
N       2.82553366      0.16708110     -0.50047430
H       0.18424734     -1.27878823      0.60241422
H      -0.46104452      1.37630376     -0.83588040
H      -2.07294530     -0.56382443      0.43609667
