11
b3lypvtz=-165954.10778404
C       1.76565865     -0.58306186      0.00346243
C       0.38301463     -0.00972277      0.00168894
N       0.25649757      1.35704696     -0.05737664
N      -0.60312224     -0.83052972      0.00453336
O      -1.83603515     -0.10253815      0.00591456
H       2.31706243     -0.25929928     -0.88180233
H       1.71092789     -1.66810721      0.01234020
H       2.32216121     -0.25078397      0.88382277
H      -0.66242872      1.71550819      0.14659120
H       1.02433137      1.90523803      0.28942497
H      -2.48408665     -0.81013122      0.04645053
