8
b3lypvtz=-177679.28772144
N       2.24889241     -0.51460103      0.26114175
C       1.16068141     -0.33415326     -0.06536283
C      -0.25702563     -0.07714326     -0.42640682
O      -0.53140853      1.29602577     -0.38790626
O      -1.11206131     -0.86655946      0.35337287
H      -0.43032927     -0.38359131     -1.45621414
H      -0.20707369      1.67715703      0.43656212
H      -0.87167539     -0.79723448      1.28481331
