17
b3lypvtz=-124055.16265606
C       2.09767540     -0.03152450     -0.11466159
C       0.76361817     -0.65860192      0.29176727
C      -0.48131147     -0.00261268     -0.32778987
C      -0.66316494      1.45127598      0.12044460
C      -1.73543311     -0.82333692     -0.01143108
H       2.21790570     -0.03214851     -1.20075928
H       2.18707784      1.00036165      0.22738974
H       2.93527529     -0.58810302      0.30922762
H       0.77156447     -1.71596211      0.01046293
H       0.66634117     -0.63781802      1.38305055
H      -0.34622742     -0.00396308     -1.41621143
H      -1.55478561      1.89020593     -0.33160068
H       0.18605052      2.07660212     -0.15651974
H      -0.78059865      1.50940530      1.20631403
H      -1.91507328     -0.85903663      1.06663488
H      -2.62204753     -0.39085388     -0.47932561
H      -1.63813255     -1.85174471     -0.36512033
