10
b3lypvtz=-155089.24882605
C      -2.25925169     -0.12254989     -0.00002492
C      -0.78263424     -0.29671164     -0.00006999
C       0.11208268      0.69344817      0.00011323
N       1.54139952      0.49893145     -0.00002397
O       1.91670514     -0.65432472      0.00000402
H      -2.55344320      0.92611280      0.00027040
H      -2.70008713     -0.60990553     -0.87453530
H      -2.70009155     -0.61040207      0.87420510
H      -0.39286875     -1.31033222     -0.00028969
H      -0.15843379      1.74093865      0.00029313
