9
b3lypvtz=-120945.22943714
C       2.23968213     -0.56858062     -0.00006081
C       1.22633671      0.06995372      0.00003376
C       0.00000095      0.86950255      0.00016221
C      -1.22635289      0.06998019      0.00038366
C      -2.23968580     -0.56857331      0.00055665
H       3.13331384     -1.14102725     -0.00014534
H       0.00013465      1.52829773      0.87454716
H      -0.00011634      1.52819825     -0.87429767
H      -3.13332024     -1.14101627      0.00073539
