12
b3lypvtz=-132576.3682069
C      -1.74488311     -0.02518221     -0.26644437
C      -0.42807645      0.01634343      0.47754285
C       0.65398532      1.04473037      0.01374354
C       1.40152075     -0.22788193     -0.26213988
N       0.52541950     -1.08778060      0.10455215
H      -2.36146527      0.83948405     -0.01202585
H      -2.29922957     -0.92849289     -0.00771215
H      -1.58252040     -0.02657269     -1.34605251
H      -0.59265549      0.02038191      1.55706668
H       1.07083106      1.69844785      0.78180928
H       0.38925832      1.64458022     -0.85862078
H       2.39424134     -0.44706351     -0.65052297
