11
b3lypvtz=-168345.84054038
O      -1.93457484      0.34898767      0.50950178
C      -0.93228272     -0.61398190      0.20464267
C       0.16963463     -0.02961783     -0.64301017
C       1.41594642      0.46314970     -0.04671220
O       1.37388220     -0.79546341     -0.72584834
H      -1.53752748      1.04462409      1.04300633
H      -1.44108382     -1.40686267     -0.34509785
H      -0.49780397     -1.05959041      1.10665822
H      -0.15478648      0.40742178     -1.58403591
H       1.98308007      1.24071933     -0.54781398
H       1.55551599      0.40061365      1.02890945
