11
b3lypvtz=-170961.92024536
C       2.02041790     -0.50698242     -0.00002538
N       1.26088686      0.73098253     -0.00003026
C      -0.00027899      0.70752087     -0.00001431
C      -0.92101288     -0.49269422      0.00010067
F      -2.23757440     -0.04724101      0.00002424
H       2.67285481     -0.51258680      0.87535301
H       2.67313175     -0.51243091     -0.87519587
H       1.43250169     -1.43123044     -0.00019825
H      -0.53306448      1.65988959      0.00003592
H      -0.77651770     -1.11299365      0.88830321
H      -0.77649357     -1.11322255     -0.88793598
