7
b3lypvtz=-164465.185621132
C      -0.63150699     -0.40347174      0.08996055
N      -1.13735833      0.73265069      0.31121574
N       0.74048317     -0.59491908     -0.07004066
C       1.68527060      0.16674115     -0.04401001
O       2.67216684      0.77742675     -0.04498650
H      -1.18024999     -1.33925465     -0.00022786
H      -2.14880529      0.66082688      0.39666448
