16
b3lypvtz=-134114.63268221
C       2.51091676     -0.30378351      0.02118501
C       1.23100290      0.52774366     -0.04844921
C      -0.03438858     -0.32047582      0.02350140
N      -1.23547893      0.49688118     -0.08844714
C      -2.47164420     -0.26597423     -0.00038136
H       3.39735694      0.33018681     -0.02600833
H       2.56684708     -1.01204168     -0.80844218
H       2.56368295     -0.87768119      0.94899409
H       1.20704904      1.10928839     -0.97282998
H       1.22238202      1.25269156      0.77278148
H      -0.01928443     -0.92395674      0.94891069
H      -0.03941292     -1.03605529     -0.80563629
H      -1.22425387      1.21248015      0.62877446
H      -3.32544733      0.41176960     -0.02827039
H      -2.55184981     -0.93233696     -0.86223527
H      -2.55453662     -0.88729793      0.90615101
