12
b3lypvtz=-155883.75096425
N      -1.09864299     -1.06063918      0.00000291
C      -0.17018933      0.01341973     -0.00000050
O      -0.81562695      1.27852838     -0.00000374
C       1.10348765     -0.16559513      0.76373921
C       1.10348661     -0.16559951     -0.76374096
H      -1.69577697     -1.00745766      0.81797038
H      -1.69577648     -1.00746334     -0.81796527
H      -0.15518125      1.97882001      0.00000165
H       1.26497473     -1.10672688      1.26915861
H       1.52026192      0.70005336      1.26215345
H       1.52025976      0.70004636     -1.26216062
H       1.26497332     -1.10673414     -1.26915512
