8
b3lypvtz=-154375.08424085
C      -0.96813585     -0.71780079     -0.42185117
C      -0.04624725      0.15946530     -0.03040891
O      -0.21940849      1.50639758     -0.18415703
C       1.18685784     -0.25227094      0.57717279
N       2.19254763     -0.52684368      1.06940163
H      -1.88686998     -0.37786926     -0.87634352
H      -0.80437423     -1.77430969     -0.28799008
H       0.54553033      1.98323149      0.15417629
