10
b3lypvtz=-155118.94681631
O       1.71337735     -0.82599271      0.66890700
C       1.47984788      0.21142818      0.10842540
N       0.20417886      0.68311803     -0.31568087
C      -0.73450680     -0.40445250     -0.72859365
C      -0.92298182      0.25012128      0.56543237
H       2.27335864      0.93212716     -0.14232375
H      -1.35089751     -0.13645016     -1.57542306
H      -0.33253138     -1.40915920     -0.72134533
H      -0.64883855     -0.31132118      1.44899684
H      -1.68110668      1.01048111      0.69180504
