12
b3lypvtz=-155888.55810725
C       2.13470328     -0.77522298     -0.07866322
C       1.06737402     -0.05562039      0.24532390
O       0.21550864      0.46703959     -0.67328111
C      -1.07185831      0.89247566     -0.17430850
N      -2.03388813     -0.14161667      0.03310361
H       2.36477612     -1.01209308     -1.10778110
H       2.80432355     -1.11928108      0.69445604
H       0.83403358      0.18318273      1.28154702
H      -1.43580242      1.58138060     -0.93302417
H      -0.92098945      1.43517456      0.76263231
H      -1.75658501     -0.78496335      0.76311046
H      -2.20159587     -0.67055557     -0.81321524
