9
b3lypvtz=-170206.81925132
C      -2.24631409     -0.10098232      0.00000023
C      -0.93646077     -0.33242382      0.00000022
N      -0.02798266      0.73502419      0.00000046
C       1.20720353      0.55453546      0.00000005
F       1.81641799     -0.65823642     -0.00000063
H      -2.62904322      0.91039214      0.00000020
H      -2.95304009     -0.91827064      0.00000023
H      -0.54553272     -1.34487664      0.00000003
H       1.93868403      1.35260404      0.00000021
