9
b3lypvtz=-165213.04873265
N       2.31256981      0.26868033     -0.12160200
C       1.10004051      0.49135504      0.15785473
N       0.02841678     -0.33831869     -0.20315554
C      -1.13445814      0.02210233      0.15007857
O      -2.22645252     -0.68803474     -0.13726401
H       2.38922159     -0.60424108     -0.64795991
H       0.85522123      1.39641033      0.72378335
H      -1.38158823      0.92366815      0.71215788
H      -1.94307104     -1.47172168     -0.63389308
