13
b3lypvtz=-143432.6812075
C       1.89936921      0.04601427      0.11061543
N       0.67131765     -0.65436474     -0.21068161
C      -0.59529113     -0.14329083     -0.02557154
C      -0.71118273      1.36346827     -0.03141839
N      -1.56840612     -0.96450765      0.09839316
H       1.94289844      1.00892644     -0.39733233
H       2.04001868      0.22023118      1.18488818
H       2.74127151     -0.54525879     -0.24664978
H       0.68941918     -1.65694516     -0.10013189
H      -0.27152733      1.78900325     -0.93552076
H      -1.75732581      1.65593335      0.01730979
H      -0.19211331      1.80405446      0.82240511
H      -2.45291025     -0.47015707      0.15493461
