13
b3lypvtz=-145827.54191658
C       0.73358254      0.99419615     -0.22287115
C      -0.73359458      0.99418545      0.22287619
C      -1.16674012     -0.42896230     -0.13011302
O       0.00000566     -1.24975278      0.00000493
C       1.16674694     -0.42895114      0.13010095
H       1.33730854      1.75288692      0.27407322
H       0.80266837      1.15839701     -1.30014252
H      -1.33732889      1.75287517     -0.27405975
H      -0.80268318      1.15837168      1.30014965
H      -1.94297521     -0.81851665      0.53100411
H      -1.53591648     -0.48568706     -1.16076618
H       1.53594478     -0.48568072      1.16074571
H       1.94297262     -0.81849274     -0.53103513
