7
b3lypvtz=-221048.65714373
O      -1.66750254     -0.56636331      0.00000192
C      -0.43461274     -0.02580156      0.00000262
F      -0.51900449      1.29528896     -0.00000235
C       0.73286309     -0.65848903      0.00000120
F       1.89388450      0.02913419     -0.00000230
H      -1.60754951     -1.52810994      0.00001345
H       0.83804969     -1.73204632     -0.00000154
