10
b3lypvtz=-152708.3685699576
C      -0.43586997      0.15512824      0.45750597
C       0.80203063      0.57495884     -0.27919515
N       1.92900908     -0.02565186     -0.07982300
N       2.91632988     -0.55344457      0.11316017
N      -1.47555136     -0.29026122     -0.47813089
H      -0.84477293      1.01108144      1.00238892
H      -0.15115768     -0.59033538      1.21218486
H       0.79845686      1.34528813     -1.03449032
H      -2.34121179     -0.47336455      0.01699428
H      -1.19726273     -1.15339907     -0.93059486
