7
b3lypvtz=-164432.5657522251
C       0.22722893      0.42698151     -0.29721137
N       1.32935809     -0.19520407      0.05046068
N       2.22623116     -0.77890164      0.38482521
C      -1.03856875     -0.12277917      0.14344908
O      -1.18074108     -1.12248462      0.81591632
H       0.33822759      1.31637322     -0.89468123
H      -1.90173596      0.47601479     -0.20275869
