8
b3lypvtz=-177689.51688516
N       1.13404479     -0.80878584      0.74868227
C       0.38611384     -0.07625517      0.04028082
O       0.77332894      0.77839281     -0.92309118
C      -1.09775117     -0.12935570      0.25867729
O      -1.84479188      0.55506142     -0.39848817
H       2.11852633     -0.68670542      0.51011591
H      -0.03437354      1.19001116     -1.27892315
H      -1.43509731     -0.82236326      1.04294620
