16
b3lypvtz=-134123.03171454
C       1.25572137     -0.79830677     -0.36097911
C      -0.00000002     -0.00350812      0.01392967
C      -0.00000369      1.35071849     -0.71884181
C      -1.25571906     -0.79831196     -0.36097595
N       0.00000140      0.15255588      1.48176263
H       1.29748112     -0.98195483     -1.43573549
H       2.15959634     -0.25086985     -0.08184804
H       1.26771511     -1.75636515      0.15884919
H       0.88319225      1.93476032     -0.44994902
H      -0.88320135      1.93475667     -0.44994671
H      -0.00000484      1.22447805     -1.80421269
H      -2.15959557     -0.25087871     -0.08184269
H      -1.26770758     -1.75637036      0.15885244
H      -1.29748071     -0.98196027     -1.43573222
H      -0.81250162      0.68490007      1.77568085
H       0.81250283      0.68490353      1.77567894
