10
b3lypvtz=-181051.25736303
N      -1.60148549     -0.83861366     -0.11451005
C      -0.59341648     -0.07191157      0.01805975
N      -0.55918258      1.29637934      0.11572687
C       0.75480647     -0.74080574      0.19105227
F       1.79804071      0.11465219     -0.17794033
H      -2.47818253     -0.32029722     -0.15502655
H      -1.37482281      1.80945183     -0.17321096
H       0.32562871      1.74629003     -0.05245423
H       0.79689961     -1.63311010     -0.42813439
H       0.90540941     -1.00904510      1.23810762
