10
b3lypvtz=-155150.27084051
C      -1.66350161     -0.06696763     -0.92233199
C      -0.35414626     -0.18607003     -0.72368219
N       0.30645769      0.19352572      0.44413933
C       1.65819104      0.06583334      0.63422067
O       2.43546630     -0.38487461     -0.17453230
H      -2.32937955      0.34366953     -0.17354304
H      -2.10077021     -0.38445046     -1.85606543
H       0.31532975     -0.59480592     -1.46668364
H      -0.23423237      0.58615494      1.19866100
H       1.96658521      0.42798512      1.62966435
