11
b3lypvtz=-165974.42290752
N       1.63792206     -0.82229606     -0.11903500
C       0.61697629     -0.07159313      0.02221725
N       0.56526897      1.29848113      0.04034338
C      -0.73917864     -0.74368034      0.19217930
O      -1.84985271      0.10338218     -0.08776471
H       2.50413251     -0.28640810     -0.16959480
H       1.41480080      1.82219756      0.15754994
H      -0.29602980      1.73174756      0.32855547
H      -0.84453523     -1.03629007      1.23793612
H      -0.74624347     -1.65369535     -0.40870654
H      -1.90721178      0.22624663     -1.04044242
