8
b3lypvtz=-175262.53935641
N       2.17412490     -0.27984316     -0.00008814
N       1.15718647      0.43315231     -0.00002133
N       0.01379425     -0.28397919      0.00001444
C      -1.20505095      0.36106052      0.00007652
O      -2.25960169     -0.22006788      0.00000293
H       2.96830723      0.36460047     -0.00016282
H       0.07055263     -1.30016492      0.00001096
H      -1.08545584      1.45422984     -0.00008456
