12
b3lypvtz=-155889.25946204
C      -2.05044135     -0.22498202     -0.33747210
N      -0.82700211     -0.20227098      0.46607218
C       0.09411364      0.83593870      0.11458195
C       1.36058615      0.50356305     -0.13922639
O       1.82638105     -0.76507775     -0.07970350
H      -2.60121178      0.72562229     -0.32112815
H      -2.71085622     -1.01185383      0.02842152
H      -1.79815417     -0.44745639     -1.37425821
H      -1.06667456     -0.15136850      1.44964205
H      -0.23845834      1.86710887      0.03561319
H       2.11873197      1.22471664     -0.41069077
H       1.04914672     -1.30697008      0.14513222
