12
b3lypvtz=-155884.59677172
O      -2.06692451      0.21933175      0.34643684
C      -0.79573129      0.34979204     -0.22373028
C       0.08333180     -0.90193035     -0.47212541
C       1.24827302     -0.06506040      0.10081476
N       0.24442334      0.86412951      0.67537067
H      -1.93669489     -0.11688348      1.24161068
H      -0.94949992      0.93950639     -1.13298258
H       0.16748486     -1.25651577     -1.49646316
H      -0.20645845     -1.72671700      0.17751688
H       1.89855295     -0.53597228      0.83874130
H       1.86842044      0.37447226     -0.68630468
H       0.44482265      1.85584732      0.63091497
