13
b3lypvtz=-166730.46869238
C       1.96170317     -0.06925500      0.09807113
N       0.66206887     -0.56993370     -0.33971443
C      -0.47626535      0.02921045      0.31809638
N      -1.62192656     -0.80132712      0.03524937
O      -0.59044069      1.39033854     -0.08653886
H       2.74824040     -0.56280786     -0.47214442
H       2.02434524      1.00031219     -0.09542844
H       2.15612911     -0.22916203      1.16828130
H       0.60421879     -1.57363607     -0.22723902
H      -0.37300807      0.09760510      1.40915330
H      -1.76928649     -0.85644939     -0.96744331
H      -2.45239998     -0.39962651      0.45157748
H      -0.46866543      1.40173839     -1.04495748
