11
b3lypvtz=-121740.31032106
C       2.40997471      0.46411788      0.00290765
C       1.46334733     -0.47730267     -0.00313047
C       0.06505812     -0.22853236     -0.00158236
C      -1.12812031     -0.05986290     -0.00071993
C      -2.56587720      0.15955496      0.00024895
H       2.16308802      1.51710179      0.00962924
H       3.45741135      0.19627765      0.00120048
H       1.75878693     -1.52237336     -0.00986887
H      -2.87218771      0.75924915     -0.85975798
H      -2.88186449      0.68829622      0.90235061
H      -3.10945674     -0.78634536     -0.04058730
