10
b3lypvtz=-155132.73640603
C      -2.31100162      0.14862163      0.00000219
N      -1.00340197     -0.46859159     -0.00000790
C       0.02250080      0.27123477     -0.00000284
C       1.36840033     -0.36124252      0.00000137
O       2.39325829      0.27525032      0.00004375
H      -2.86214629     -0.20175118     -0.87509830
H      -2.86214152     -0.20176871      0.87509864
H      -2.28563520      1.24452048      0.00001319
H      -0.00157393      1.36766583      0.00000474
H       1.35019411     -1.46687302      0.00001018
