10
b3lypvtz=-183440.27289667
C      -1.40312042      0.07798624      0.00806252
C       0.05099097      0.35094709      0.12241009
C       0.96815828     -0.53661977     -0.25782486
O       2.31455955     -0.40088613     -0.19350056
F      -1.99482411      0.89240854     -0.97596478
H      -1.58961545     -0.96030892     -0.27271898
H      -1.93336605      0.29443092      0.93795259
H       0.35138889      1.31500026      0.52142105
H       0.69848718     -1.50238949     -0.66770102
H       2.53734116      0.46943128      0.15810193
