13
b3lypvtz=-122497.2294485
C       1.01500552     -0.78173588      0.13725055
C       1.01500640      0.78173444      0.13725150
C      -0.40992095      0.76499645     -0.42266341
C      -1.31983376      0.00000019      0.49125607
C      -0.40992173     -0.76499557     -0.42266458
H       1.74450934     -1.18889890     -0.56088508
H       1.14167078     -1.27738808      1.10208741
H       1.74451045      1.18889737     -0.56088394
H       1.14167258      1.27738542      1.10208886
H      -0.79901544      1.44260152     -1.16962629
H      -2.36554745      0.00000095      0.21269325
H      -1.14394891     -0.00000079      1.56265416
H      -0.79901683     -1.44259913     -1.16962851
