13
b3lypvtz=-143393.638258293
C      -1.65036453      0.60811681     -0.36984152
C      -0.32751321     -0.06653475     -0.34218499
N       0.80115789      0.58977870     -0.18160788
C       2.07938294      0.06539491     -0.09387716
N      -0.22154225     -1.43884191     -0.49947399
H      -2.33033393      0.17954634      0.37698108
H      -2.14621732      0.51450949     -1.34244544
H      -1.54845993      1.67306602     -0.15757750
H       0.70164191      1.58007221     -0.01038084
H       2.84994259      0.81789018     -0.03023293
H       2.27570801     -0.77578283     -0.74391516
H      -1.07008313     -1.94020420     -0.27774322
H       0.58668098     -1.80701099      0.00640422
