14
b3lypvtz=-156588.3196620248
C       2.03192638      0.74878767     -0.19134156
O       0.65085775      0.68085652     -0.46082609
C       0.11866733     -0.65763629     -0.38899480
C      -1.35054293     -0.60524382     -0.61994934
N      -1.89053035      0.19044285      0.57421458
H      -2.88872691      0.33718246      0.47310753
H      -1.70378782     -0.16812313      1.53629629
H      -1.43120721      1.09752174      0.51049269
H       2.61439996      0.18045047     -0.92788044
H       2.32825606      1.79600206     -0.24509458
H       2.27641003      0.36127073      0.80737541
H       0.58425481     -1.30072124     -1.14556024
H       0.43661716     -1.05314651      0.61118226
H      -1.77659426     -1.60764352     -0.53302171
