9
b3lypvtz=-144285.26928099
C       2.53399716     -0.11879400      0.00573181
C       1.09405682      0.06048071      0.00281013
C      -0.10443651      0.18608633      0.01187841
C      -1.52960392      0.39070807     -0.00442764
O      -2.33872057     -0.38882229      0.44284573
H       3.04617248      0.75906801     -0.39044263
H       2.89503907     -0.29947132      1.01999440
H       2.81170214     -0.98121620     -0.60342243
H      -1.84889666      1.34138069     -0.46926279
