13
b3lypvtz=-143382.67138189444
C      -2.11249077      0.17904013      0.20897066
N      -0.96294497     -0.65966295     -0.14145017
C       0.21495242      0.02341483     -0.50372800
N       1.30364711     -0.21156966      0.22799367
C       2.56571607      0.21364561      0.18552503
H      -1.87770145      0.76500441      1.09794083
H      -2.40746843      0.87676806     -0.58667939
H      -2.96841226     -0.45944757      0.43692763
H      -1.24203789     -1.34834644     -0.83182232
H       0.28148570      0.73648558     -1.31672498
H       1.09262742     -0.87557632      0.96757199
H       3.24528876     -0.14941533      0.93312600
H       2.86733828      0.90965963     -0.57767918
