9
b3lypvtz=-144263.93421615
O       2.23177865     -0.47200524      0.99987920
C       1.29176622      0.11808776      0.52783436
C       0.03091174     -0.52289032      0.08276469
C      -1.26405860      0.27105945      0.13142521
C      -0.77122197      0.11510157     -1.03943362
H       1.31234506      1.22308912      0.39149445
H       0.01309766     -1.60188707      0.21884508
H      -2.03166780      0.62824304      0.79207508
H      -0.81275096      0.24130169     -2.10508445
