12
b3lypvtz=-155891.4260138
N       2.47292862      0.04773189     -0.29138147
C       1.27612024     -0.28217275     -0.54477517
C       0.05083720      0.59144360     -0.48573046
C      -1.08170199     -0.01778338      0.33492776
O      -1.53791928     -1.18393675     -0.34616082
H       2.52913363      1.03480361     -0.02556602
H       1.09370132     -1.31648016     -0.84034336
H       0.31325842      1.57092383     -0.07733149
H      -0.32457125      0.74554887     -1.50296630
H      -1.89002701      0.71526069      0.43720169
H      -0.72336188     -0.26618672      1.34074831
H      -2.17839802     -1.63915273      0.20727732
