12
b3lypvtz=-155903.29727568
C      -2.33042061     -0.38960662     -0.00006387
C      -1.12337494      0.53815314      0.00011053
N       0.11857817     -0.23673999      0.00016777
C       1.21627639      0.37132832     -0.00008779
O       2.40444089     -0.26935955     -0.00005616
H      -2.32033410     -1.03159982     -0.88156824
H      -3.25961658      0.18289084     -0.00009034
H      -2.32046731     -1.03173975      0.88133967
H      -1.16296046      1.18907876     -0.88011338
H      -1.16310227      1.18890413      0.88045450
H       1.36485875      1.45353965     -0.00042015
H       2.20725006     -1.21832009      0.00021046
