7
b3lypvtz=-141148.64878068
N      -2.19462571     -0.58448490     -0.00000509
C      -1.22122732      0.02495427      0.00001793
C      -0.00001949      0.83211180     -0.00000546
C       1.22111805      0.02484875     -0.00000108
N       2.19467204     -0.58434625      0.00000151
H       0.00000669      1.48060181     -0.87958776
H       0.00002674      1.48063953      0.87954894
