10
b3lypvtz=-131831.91230868
C      -0.76516147      0.91681754     -0.00000224
C      -1.12592424     -0.37295842     -0.00000520
N      -0.00908914     -1.25772889     -0.00002725
C       1.03915227     -0.51728693     -0.00001988
C       0.73197534      0.95226745     -0.00002106
H      -1.41103810      1.77980947      0.00003394
H      -2.12069642     -0.79117371      0.00000388
H       2.03681204     -0.93989166      0.00006151
H       1.15519140      1.45580067     -0.87641353
H       1.15517430      1.45572749      0.87642282
