10
b3lypvtz=-178469.58099673
C       1.84390289     -0.09184491     -0.00000327
O       0.55356410     -0.71617684     -0.00000178
C      -0.49843862      0.14213905      0.00001338
N      -1.66631390     -0.55206656      0.00004347
O      -0.40026849      1.34745463      0.00000576
H       1.97281976      0.52753065      0.88634105
H       2.56186971     -0.90722840     -0.00003571
H       1.97279395      0.52758037     -0.88631637
H      -1.67355338     -1.55457176     -0.00009482
H      -2.52613502     -0.03770522     -0.00008271
