11
b3lypvtz=-165936.86466456
N       2.21907251      0.02115375     -0.10192554
C       0.85547692     -0.43911225      0.17236311
C      -0.09864351      0.71792352      0.11330270
N      -1.36150799      0.67576897     -0.01441241
O      -1.83460150     -0.65253318     -0.08387565
H       2.32786214      0.23956870     -1.08549368
H       2.88663593     -0.70972579      0.10879518
H       0.49233450     -1.23476494     -0.48783754
H       0.83051109     -0.85110961      1.18649108
H       0.31759911      1.71749498      0.18942583
H      -2.78054120     -0.52639814     -0.20645008
