12
b3lypvtz=-132540.83455423
C      -0.93353008      0.62078812     -0.05424786
C       0.01143951     -0.13369526      0.91740213
C       1.20433089      0.30037256      0.03304800
C       0.07666696     -0.19478051     -0.90320831
N      -0.07275456     -1.37941009      0.04367808
H      -0.87326041      1.71067336     -0.08861330
H      -1.96741309      0.27296323     -0.07966179
H      -0.03590865     -0.19225381      2.00343785
H       1.44189092      1.36196445      0.00587075
H       2.08392591     -0.33628201      0.08590509
H       0.10701522     -0.32591647     -1.98347028
H      -1.04250262     -1.70462355      0.01985963
