11
b3lypvtz=-168347.03843086
O      -1.03191746      1.37285947      0.57769343
C      -0.16806166      0.26599876      0.61241712
C      -0.53552699     -1.01599100     -0.16138099
O       0.78391784     -1.06861946     -0.75172543
C       1.09894187      0.25692312     -0.26606528
H      -1.24573708      1.57365049     -0.34008342
H       0.04055692      0.08435408      1.66462776
H      -0.76655919     -1.91401135      0.41393567
H      -1.31678757     -0.85519195     -0.91426626
H       1.07216685      1.00566702     -1.06725749
H       2.06910647      0.29436082      0.23210489
