12
b3lypvtz=-155854.52632948
C      -2.46212782      0.29037362      0.00002929
C      -1.15813940     -0.44609394      0.00002402
C       0.02514222      0.15458163      0.00002761
O       1.20263321     -0.55568115      0.00000254
N       2.38495720      0.24156657      0.00000147
H      -2.31212483      1.37118376      0.00004156
H      -3.06377864      0.03729875     -0.87737653
H      -3.06378466      0.03727974      0.87742544
H      -1.18339141     -1.53034691      0.00000809
H       0.14019152      1.23489956      0.00002209
H       2.33088799      0.84369878      0.82023538
H       2.33087162      0.84371859     -0.82021693
