10
b3lypvtz=-160133.68301637
C       2.31607877     -0.13531254     -0.00000247
C       0.99851325     -0.34631370     -0.00000172
C       0.00792963      0.71320710     -0.00000994
C      -1.30935541      0.53502291     -0.00000524
F      -1.86987141     -0.69089565      0.00001603
H       2.73182399      0.86515056     -0.00001069
H       3.01849017     -0.95702452      0.00000542
H       0.62063884     -1.36196570      0.00000565
H       0.35162578      1.74062338     -0.00001814
H      -2.05040761      1.32153817      0.00000410
