12
b3lypvtz=-155863.61904216
C      -0.38090091      1.47235625      0.00007033
C      -0.46400292      0.14272544      0.01741148
C      -1.75678259     -0.62313021     -0.01143193
N       0.64392375     -0.71949570      0.14286890
O       1.89188172     -0.10069068     -0.15059107
H      -1.28016187      2.06877488     -0.02411837
H       0.57132776      1.97833292      0.00767359
H      -1.85674567     -1.25849722      0.87149966
H      -2.60255370      0.05924009     -0.04648899
H      -1.81032675     -1.27464780     -0.88937230
H       0.57237827     -1.51515674     -0.48245892
H       2.36140192     -0.13903925      0.68962063
