10
b3lypvtz=-131793.31720671
C       2.35573705     -0.42927456      0.06679951
C       1.27942170      0.09710633      0.03500597
C      -0.02781189      0.74792136      0.01553020
N      -1.06325375     -0.13917410     -0.51747075
C      -2.04559250     -0.39105824      0.23003978
H       3.30673760     -0.89957670      0.08975895
H       0.02346112      1.62058609     -0.64226386
H      -0.27047305      1.11166769      1.02470786
H      -2.83922007     -1.03739402     -0.13755372
H      -2.15418122      0.00715015      1.24671806
