8
b3lypvtz=-177701.45483874
N      -0.99707000     -0.07254778      0.69277359
C      -0.27495873      0.38543315     -0.34925432
O      -0.64091709      1.18169941     -1.19223115
C       1.14098517     -0.19879622     -0.41688480
O       1.57155472     -0.98947811      0.38042119
H      -1.94010989      0.24599977      0.83150578
H      -0.58253315     -0.73447025      1.32749412
H       1.72314896      0.18226002     -1.27372442
