14
b3lypvtz=-133335.41878322
C       1.83006470     -0.00000006      0.08865664
N       0.47698217      0.00000001     -0.41333471
C      -0.45302995      1.04888491      0.04780776
C      -1.58676544      0.00000004      0.03966129
C      -0.45302996     -1.04888486      0.04780777
H       2.36152467     -0.88164878     -0.27475322
H       1.88030153     -0.00000007      1.19218449
H       2.36152473      0.88164862     -0.27475322
H      -0.22902136      1.39984828      1.06663766
H      -0.53887384      1.91417940     -0.61203718
H      -2.27301146      0.00000004      0.88252687
H      -2.14944172      0.00000004     -0.89139464
H      -0.53887387     -1.91417934     -0.61203717
H      -0.22902137     -1.39984824      1.06663766
