10
b3lypvtz=-178407.16214618
C      -1.85949541     -0.61471685      0.00000034
O      -1.21689184      0.66574118     -0.00000117
C       0.12215039      0.66399863     -0.00000403
N       0.80857178     -0.40325840     -0.00000228
O       2.19103021     -0.09307291     -0.00000298
H      -1.57919702     -1.18390529      0.88675450
H      -2.92579352     -0.40806361      0.00000485
H      -1.57920436     -1.18390375     -0.88675715
H       0.54877503      1.66202454     -0.00000109
H       2.59412773     -0.96590754      0.00000000
