7
b3lypvtz=-190168.86196152
O       0.53814505      1.51244405     -0.42219249
C       0.81565037      0.40016689     -0.05595536
C      -0.26782261     -0.66884823      0.12389365
O      -0.00655244     -1.78029792      0.48773710
O      -1.49683886     -0.23158089     -0.16276925
H       1.83940900      0.06653675      0.17381952
H      -1.42199050      0.70167936     -0.43073316
