10
b3lypvtz=-176036.64118672
N       1.37828854      0.81764912     -0.08936959
N       0.49558495     -0.12824298      0.56916049
C      -0.50818835     -0.41869003     -0.17166916
N      -0.75251870     -0.00493880     -1.44585078
O      -1.44741733     -1.26636355      0.30247420
H       1.70426314      1.43274791      0.64822448
H       2.20269971      0.29401434     -0.37494986
H      -1.71190524     -0.02673854     -1.74736697
H      -0.20007054      0.80061689     -1.70309173
H      -1.16073620     -1.50005435      1.19643891
