12
b3lypvtz=-155862.83331871888
C      -1.48485405      0.54384560     -0.70043040
C      -0.51390891     -0.29359745      0.14570083
C       0.80229136     -0.51829646     -0.51778526
N       1.91754856     -0.09093470     -0.00117779
O       3.09560103     -0.20044379     -0.44544263
H      -1.66750632      0.07186956     -1.66699141
H      -2.44500063      0.64992512     -0.19368393
H      -1.08342676      1.54044935     -0.88653350
H      -0.35403663      0.19092933      1.11386466
H      -0.97934991     -1.26067960      0.36371345
H       0.89137989     -1.03578936     -1.46325452
H       1.82126237      0.40272240      0.89789802
