9
b3lypvtz=-167578.79010305
C       2.07246259      0.45737996     -0.09841280
C       0.92936891      0.10160455     -0.14287596
C      -0.48132758     -0.29450226     -0.23413036
O      -0.78798783     -1.03878953      0.92434645
O      -1.33780963      0.81345232     -0.39818002
H       3.08759082      0.76508397     -0.05480053
H      -0.63776294     -0.89310191     -1.13631956
H      -1.69497940     -1.35212145      0.82958500
H      -1.14955494      1.44089435      0.31068777
