9
b3lypvtz=-94866.56949312
N       1.33491831      0.20297446      0.05695158
C      -0.08073000      0.51205026      0.00950646
N      -0.94837605     -0.65920469      0.19953888
H       1.52468296     -0.38234416      0.86329408
H       1.61479407     -0.32511353     -0.76148260
H      -0.26204212      1.04428869     -0.93227734
H      -0.30858224      1.20797174      0.81952029
H      -1.90357894     -0.37185495      0.38449345
H      -0.97088599     -1.22876782     -0.63964479
