8
b3lypvtz=-83998.55424405333
C       1.20381639      0.15913862      0.21612089
N      -0.00468419     -0.36690837      0.02766188
C      -1.19982887      0.15539297     -0.23982819
H       2.02061471     -0.50658229      0.42284732
H       1.32962183      1.22640509      0.15705391
H      -0.01749815     -1.37692134      0.10381177
H      -2.03363602     -0.51284086     -0.34608477
H      -1.29840569      1.22231617     -0.34158281
