7
b3lypvtz=-94063.79159682643
C       0.94161415      0.23883311     -0.22931389
N      -0.20722902     -0.19203031      0.23704756
N      -1.31721357      0.48012172      0.36993331
H       1.76213619     -0.45430175     -0.27029106
H       1.01533568      1.26380083     -0.55030352
H      -0.19393126     -1.17284346      0.51939148
H      -2.00071218     -0.16358013      0.76063772
