7
b3lypvtz=-94086.17730077
C       1.07242648      0.20303323      0.05477998
N       0.15895933     -0.29930351     -0.67093775
N      -1.14468787     -0.06846420     -0.33592702
H       0.87012267      0.77468715      0.96511338
H       2.10041988      0.06189605     -0.25079592
H      -1.73985274     -0.79741156     -0.69594119
H      -1.31738775      0.12556284      0.64740852
