7
b3lypvtz=-96486.0365809
C       0.72336210      0.11972895      0.02195346
C      -0.72732095     -0.07117820      0.06320392
O       0.04767350     -0.58296897     -1.02184712
H       1.12808068      1.08730480     -0.25677266
H       1.36149897     -0.48958592      0.65378350
H      -1.38334136      0.75679009     -0.18536446
H      -1.14995293     -0.82009075      0.72514336
