7
b3lypvtz=-119813.03621939
O      -1.02366208      0.67558726      0.06476324
C      -0.08197379     -0.36348373      0.18066516
O       1.16703791     -0.03982925     -0.38070339
H      -1.17038399      0.84121614     -0.87318698
H      -0.00915855     -0.56363682      1.25225458
H      -0.40372845     -1.26707881     -0.34239463
H       1.52186896      0.71712521      0.09870202
