6
b3lypvtz=-106547.67844871
C       0.93967255     -0.11617431     -0.07231381
N       0.25910268     -0.51503173     -1.06205160
O       1.07907857     -0.93922667     -2.11456008
H       0.38543912      0.23100843      0.78901717
H       2.02690119     -0.11387630     -0.06646561
H       0.44370589     -1.20989942     -2.78522606
