10
b3lypvtz=-84792.25892439
C      -1.21489859     -0.22340788      0.02086578
N      -0.00000021      0.56032538     -0.14456786
C       1.21489853     -0.22340772      0.02086392
H      -1.27321831     -0.76608142      0.97869007
H      -1.28193740     -0.96433651     -0.77924186
H      -2.08727678      0.42612781     -0.05813745
H       0.00000026      1.33094788      0.51140074
H       2.08727652      0.42612803     -0.05814087
H       1.27321988     -0.76608109      0.97868821
H       1.28193609     -0.96433649     -0.77924370
