6
b3lypvtz=-106583.31350064
N       0.92180779      0.04348386      0.06898541
C       0.36915645     -0.32638116     -0.99999614
O       0.92485361     -0.73157611     -2.17100179
H       1.94179068      0.02657305      0.02031124
H      -0.71355911     -0.35513563     -1.08319995
H       1.88845057     -0.70646400     -2.09889877
