7
b3lypvtz=-73184.06453026
C       1.30032679     -0.00020729      0.00002563
C      -0.00000276     -0.00015054      0.00008094
C      -1.30033227     -0.00003008      0.00007054
H       1.86349415     -0.69146900     -0.61564902
H       1.86360763      0.69093455      0.61573108
H      -1.86348157      0.61488435     -0.69188300
H      -1.86363097     -0.61484897      0.69198583
