8
b3lypvtz=-84015.32145407
C       0.74027833     -0.39863884      0.02287756
C      -0.74028458     -0.39862649      0.02287830
N       0.00000720      0.85674163     -0.16859491
H       1.24736328     -0.56724259      0.96551538
H       1.28014938     -0.74507252     -0.84916642
H      -1.24737144     -0.56722187      0.96551659
H      -1.28016229     -0.74505125     -0.84916511
H       0.00001214      1.39687392      0.68967861
