10
b3lypvtz=-84734.06887901243
C       1.17099466      0.23765913      0.73860099
C       0.06597324      0.13249443     -0.28616131
N      -1.22209478     -0.07704222      0.52011489
H      -1.98524685     -0.28108730     -0.11791667
H      -1.21754486     -0.81258680      1.26706413
H      -1.45574388      0.79544323      0.98606624
H       2.13664301      0.21050046      0.23068919
H       1.19162160     -0.57516882      1.50344948
H       1.14455586      1.18297183      1.29494297
H       0.17084201     -0.81318393     -0.82953122
