6
b3lypvtz=-111576.94687712
C       1.18034346     -0.19299122     -0.00004540
C       0.01993928      0.43105394     -0.00007323
F      -1.15281308     -0.23050258      0.00004921
H       1.24242807     -1.27165372      0.00002545
H       2.09259439      0.38391039     -0.00004465
H      -0.12321312      1.50351718     -0.00002339
