7
b3lypvtz=-96446.05102461216
C      -0.84645652      0.05223966     -0.04587021
O       0.49181754     -0.44333274      0.20053391
C       1.47134916      0.25285537     -0.28579414
H      -0.77963350      0.96947747     -0.62677323
H      -1.38729101     -0.72358620     -0.58410830
H      -1.31324801      0.22472224      0.92182136
H       2.36346232     -0.33237579      0.03909146
