7
b3lypvtz=-96514.13605353
C      -1.16820589     -0.14873599     -0.00005368
C       0.23084717      0.39753975     -0.00009316
O       1.22983642     -0.27371993      0.00014085
H      -1.70613111      0.22279400     -0.87673903
H      -1.70598438      0.22281779      0.87671494
H      -1.15867001     -1.23645731     -0.00002868
H       0.30062280      1.50645168     -0.00007424
