8
b3lypvtz=-84036.18717947
C      -1.18336831     -0.16241515      0.00000036
C       0.19140034      0.43973728      0.00000268
N       1.30626045     -0.15944448     -0.00000842
H      -1.74462738      0.17159133      0.87678560
H      -1.74462141      0.17159625     -0.87678688
H      -1.14461411     -1.25233162     -0.00000267
H       0.22214792      1.53292984     -0.00000440
H       1.17245151     -1.17408046     -0.00000826
