7
b3lypvtz=-96502.81278313
C      -0.96825688     -0.23714398      0.29153541
C       0.25607737      0.21736382      0.06600403
O       1.08081058     -0.33041517     -0.87606691
H      -1.58232839      0.22850429      1.04644119
H      -1.37247962     -1.07032752     -0.26613933
H       0.66748895      1.05340765      0.62246153
H       1.91858799      0.13861091     -0.88423592
