7
b3lypvtz=-94112.59717527
N       1.27257339     -0.11950186      0.00001233
C       0.12017865      0.41728310     -0.00000127
N      -1.11299269     -0.17683180     -0.00005088
H       1.21695025     -1.13965394      0.00000231
H       0.05830115      1.50609389      0.00001042
H      -1.95067016      0.37447260      0.00010481
H      -1.20675359     -1.17719399      0.00005828
