10
b3lypvtz=-84730.89147851629
C      -1.01351615      0.24349550      0.34913234
N       0.06966978     -0.44948394     -0.43380831
H       0.01413908     -1.44891267     -0.25871186
H      -0.12269302     -0.34358736     -1.42596690
C       1.54131683     -0.06790407     -0.24477013
H      -0.95355270      1.30469137      0.12397682
H      -2.00461817     -0.14550617      0.09602010
H      -0.80443782      0.09148584      1.40439439
H       1.56199260      1.01196491     -0.44263270
H       1.71169957     -0.19624340      0.83236626
