6
b3lypvtz=-106560.91484490102
C       0.25027101     -0.56730638      0.55001325
O       1.11884109      0.46033179      0.67832944
N      -0.80329089     -0.11601760     -0.11280557
H       1.87852425      0.12308522      1.15968155
H      -0.88291061      0.84436384     -0.43964889
H      -1.56143484     -0.74445687     -0.30496396
