10
b3lypvtz=-84799.46824269
C       1.24318850     -0.26156670      0.00000255
C      -0.04153482      0.56938789     -0.00000154
N      -1.29516300     -0.18860561      0.00000094
H       1.29302629     -0.90368608     -0.88274595
H       1.29302500     -0.90367958      0.88275583
H       2.13062781      0.37654977      0.00000079
H      -0.05306632      1.22654057     -0.87305617
H      -0.05306739      1.22654759      0.87304778
H      -1.33928692     -0.79472133     -0.81183644
H      -1.33929015     -0.79471050      0.81184621
