8
b3lypvtz=-107339.79062296
N       1.10315512     -0.14256546      0.40432208
C      -0.26202895     -0.33583444      0.03429949
O      -0.81161602      0.85142187     -0.56071394
H       1.18861199      0.61678474      1.06929737
H       1.66201085      0.09709270     -0.40582960
H      -0.83218990     -0.60289199      0.92998045
H      -0.31736900     -1.16854909     -0.67435033
H      -1.73057408      0.68454166     -0.79700553
