7
b3lypvtz=-73182.19123251
C       1.41652203      0.00003241      0.00025739
C       0.21735683     -0.00003025      0.00021211
C      -1.23792079     -0.00011477      0.00022360
H       2.47751585      0.00007757      0.00025533
H      -1.62869660      0.25798523      0.98616940
H      -1.62871785      0.72466001     -0.71630151
H      -1.62863848     -0.98305322     -0.26919033
