13
b3lypvtz=-179784.95840535
C       2.29309388     -0.33769848     -0.25963509
C       0.85355766      0.07520556     -0.39789130
N       0.34169379      1.06046819      0.53595469
C      -0.17331287     -0.31271933      0.63486334
C      -1.54693748     -0.58111426      0.15105626
O      -2.16989269      0.18367717     -0.54986886
H       2.59134279     -0.34768481      0.78838153
H       2.93912874      0.36736570     -0.78691857
H       2.45902052     -1.32963001     -0.68377992
H       0.46883927      0.12266465     -1.41214837
H      -0.37823342      1.62307892      0.08598789
H       0.15140906     -0.88056200      1.49888032
H      -1.98782025     -1.54542129      0.47007408
