12
b3lypvtz=-166565.99603709
C      -0.75931355      1.16072832     -0.00001099
C       0.56671160      1.26186082     -0.00000061
N       1.36031991      0.11410290      0.00002680
C       0.74169703     -1.12044320     -0.00000704
N      -0.50725521     -1.33488580     -0.00001858
C      -1.43325498     -0.19128948      0.00001203
H      -1.36585755      2.05624101     -0.00003571
H       1.09550235      2.20404224     -0.00001382
H       2.36069744      0.17716578      0.00000175
H       1.42773534     -1.96485727     -0.00002410
H      -2.09467352     -0.29452651     -0.86918220
H      -2.09461785     -0.29452682      0.86924948
