9
b3lypvtz=-224856.0517187
O       1.44703741     -1.24590380      0.64478132
C       1.83050666     -0.34968534     -0.03275874
O       1.07325117      0.55434454     -0.73417320
C      -0.29638709      0.56815158     -0.76656544
N      -1.03729664     -0.25160254     -0.15478139
O      -2.38603776      0.05365346     -0.40880814
H       2.87802672     -0.08375473     -0.21909250
H      -0.66329652      1.37746012     -1.38814571
H      -2.84580394     -0.62276330      0.09854379
