13
b3lypvtz=-179794.57686429
C      -2.01966820     -0.27544654      0.04096420
C      -0.59019422     -0.08139105     -0.41546509
O       0.16484556      0.42529304      0.68919390
C       1.50775699      0.70068070      0.39190339
C       2.30974863     -0.51188840      0.13278824
N       2.92695857     -1.46011872     -0.07404604
H      -2.44969852      0.66814385      0.37717135
H      -2.62549937     -0.65840276     -0.78128783
H      -2.06574865     -0.98854625      0.86390079
H      -0.15745282     -1.02815168     -0.75628203
H      -0.53620805      0.63218273     -1.24766820
H       1.92944435      1.21392578      1.25648237
H       1.60571572      1.36371932     -0.47765506
