13
b3lypvtz=-179803.7476266
C       1.93742425     -0.05526497     -0.38938360
C       0.70271438      0.03609367      0.48481583
C      -0.25746755      1.20706360      0.15147696
N      -1.50795331      0.57189069     -0.29883973
C      -1.32195804     -0.67233653     -0.19015047
O      -0.13632543     -1.14420585      0.26530097
H       2.49849139     -0.96598123     -0.18017351
H       1.66142866     -0.05188212     -1.44512488
H       2.59026504      0.79986266     -0.20298636
H       0.97976592      0.02079459      1.53919703
H       0.13726305      1.84824431     -0.63972391
H      -0.46171731      1.84129013      1.01553867
H      -2.04747105     -1.43734295     -0.43429799
