16
b3lypvtz=-168082.19721654
C      -2.67782071     -0.16644398      0.03287079
N      -1.34226054      0.38701542      0.04471344
C      -0.36831560     -0.42007513     -0.06631856
N       0.94366042     -0.03814100     -0.15090560
C       1.29776601      1.35883153      0.00156672
C       1.99462803     -1.00804763      0.06204495
H      -3.24300924      0.22890379     -0.81594392
H      -3.21542224      0.13426520      0.93597664
H      -2.70088415     -1.26510618     -0.02832259
H      -0.50188668     -1.50763508     -0.13087770
H       1.51609065      1.61426314      1.04608399
H       2.18211672      1.57974190     -0.59895438
H       0.46426933      1.97121492     -0.32999945
H       1.62278754     -2.01013286     -0.14796423
H       2.37539416     -0.99315363      1.09196232
H       2.83409531     -0.80960841     -0.60816841
