10
b3lypvtz=-191453.30179766
O       2.38713057     -0.24810605     -0.26816234
C       1.23224280     -0.04894199     -0.09690144
C      -0.00293860      0.66937944     -0.70049979
C      -0.86331773     -0.52110174     -0.22331709
C       0.09218792     -0.19344494      0.94498941
O      -0.13951006      1.25402053      0.66565912
H      -0.12590346      1.33182841     -1.55048718
H      -0.76282174     -1.47993767     -0.73182557
H      -1.89533270     -0.24453546     -0.01885319
H       0.07816299     -0.51916053      1.97949805
