17
b3lypvtz=-157998.79221576
C       2.09276921     -0.23613256      0.24544420
N       0.92096471     -0.42771277     -0.60137996
C      -0.31676595      0.12899795     -0.10278726
C      -0.39114991      1.63401535      0.08587408
C      -1.55682931     -0.59044820     -0.55990346
C      -1.06735842     -0.75367842      0.85934737
H       1.91653559     -0.70371415      1.21564634
H       2.37016230      0.81193043      0.42615518
H       2.94829736     -0.73511586     -0.21124134
H       1.10206570     -0.08395568     -1.53719321
H      -0.20790130      2.15183584     -0.85997130
H      -1.37434228      1.93937109      0.44643062
H       0.34748959      1.98576644      0.80918807
H      -2.45270415     -0.00841732     -0.72948140
H      -1.41822920     -1.42709384     -1.22943572
H      -0.61246634     -1.69851814      1.11969650
H      -1.63091159     -0.28304315      1.65350927
