13
b3lypvtz=-179797.99113079
C      -1.41115087      1.30185606     -0.00001949
C      -0.90570775     -0.10238803     -0.00003041
O      -1.94846739     -0.97667418     -0.00004280
C       0.37639351     -0.51566770     -0.00002666
C       1.54913055      0.33920278     -0.00002979
N       2.77320940     -0.02339384     -0.00000189
H      -0.60891266      2.03222396      0.00006592
H      -2.03850903      1.46476051     -0.87864005
H      -2.03863406      1.46469529      0.87852332
H      -1.61530757     -1.88189327     -0.00007599
H       0.56757880     -1.58685769     -0.00002863
H       1.37038434      1.41486606     -0.00006227
H       2.84854473     -1.04346196      0.00002676
