13
b3lypvtz=-203120.74945157
C       1.42130997     -1.16613901     -0.03136024
N       0.56522247      0.00747059      0.06990979
C       1.21069424      1.30744504      0.01874819
C      -0.79526388     -0.16995959     -0.01139290
O      -1.34463004     -1.24352009     -0.03382934
O      -1.54407817      0.97031080     -0.05197358
H       0.80200084     -2.05194892      0.05813729
H       1.94494348     -1.19452380     -0.99201562
H       2.16348924     -1.16060674      0.76944024
H       0.75161574      2.01393838      0.71491513
H       1.21579284      1.74487222     -0.98666799
H       2.24628378      1.19579464      0.33448424
H      -1.00001550      1.76302149     -0.08615423
