12
b3lypvtz=-166565.40261393
N       1.95330663     -1.00842262      0.21201489
C       0.88707992     -0.33498679      0.07795087
C      -0.52120670     -0.89283214      0.11767207
C      -1.39811215      0.35742987     -0.09750539
N      -0.49562710      1.51557503     -0.24236845
C       0.70873394      1.12247805     -0.14587249
H       2.77547188     -0.40560568      0.14743314
H      -0.65286925     -1.64370306     -0.66113643
H      -0.70702022     -1.38312180      1.07307500
H      -2.07374733      0.55806091      0.73568621
H      -2.01855761      0.29929707     -0.99339375
H       1.54234796      1.81583115     -0.22365568
