10
b3lypvtz=-189073.68185043
C      -0.01728071      1.46466999      0.00008931
C      -0.01644912      0.13051587      0.00006368
C       1.24735797     -0.65705205     -0.00002067
O       2.35153755     -0.17016519     -0.00026176
N      -1.18315911     -0.70740832      0.00042868
N      -2.26831343     -0.10827110     -0.00063033
H       0.92594425      1.99322235     -0.00006721
H      -0.94342750      2.02159389      0.00027392
H       1.09288480     -1.75195837      0.00021530
H      -3.00255971     -0.82855706      0.00004908
