10
b3lypvtz=-189049.5670002
C       0.75818897      1.55726516     -0.00000180
C       0.05418564      0.42463618      0.00000463
C      -1.41971470      0.36694100      0.00001700
N      -2.14629252     -0.67228401      0.00000461
N       0.70085819     -0.89176142     -0.00001363
O       1.90441303     -0.88155223      0.00000746
H       0.26754327      2.52117007      0.00000555
H       1.83962671      1.52787813     -0.00001491
H      -1.91463827      1.34046145      0.00003509
H      -1.56803634     -1.51503933     -0.00001400
