15
b3lypvtz=-157222.76587664
C       1.65053428     -0.73381003      0.47480383
C       0.41050636     -0.10783383     -0.07744512
C      -0.86631595     -0.83303539     -0.52868162
C      -1.69573611      0.41805009     -0.07972940
C      -0.38502064      1.07954245      0.34062536
N       0.45642925      1.13604164     -0.88354483
H       1.41044384     -1.47001819      1.24462529
H       2.21479646     -1.24494672     -0.31029359
H       2.30585532      0.01765173      0.92132478
H      -1.08815074     -1.71318755      0.07417306
H      -0.90206767     -1.09304428     -1.58633758
H      -2.24819801      0.94186189     -0.85924328
H      -2.35803075      0.19966595      0.75660912
H      -0.22049455      1.77993927      1.14820421
H       1.31544890      1.62312296     -0.63509022
