11
b3lypvtz=-179050.69929135
C       0.89359032      1.40851019      0.12447304
C       0.96797965     -0.08857725     -0.00166459
O       1.97155821     -0.68349976     -0.29822038
C      -0.30751664     -0.90615849      0.31394257
C      -1.56702952     -0.24484141      0.00742521
N      -2.54936019      0.29722241     -0.24718285
H       1.88613062      1.83413594      0.00705404
H       0.22371240      1.81222226     -0.63793170
H       0.47033383      1.69343597      1.09030918
H      -0.23614973     -1.85401775     -0.21823580
H      -0.28086896     -1.13405810      1.38438129
