15
b3lypvtz=-157255.13531907
C      -2.80074809     -0.14684548      0.00088111
C      -1.54334694      0.31383531     -0.00645035
C      -0.35961090     -0.51132828      0.01575605
C       0.92556249     -0.09408314      0.00724606
C       1.37511005      1.33785109      0.00459086
N       1.98290333     -0.99722405     -0.07603509
H      -3.64732082      0.52494303     -0.01459362
H      -3.01712699     -1.20840540      0.02144321
H      -1.40195515      1.38916220     -0.02999910
H      -0.53347887     -1.58466774      0.02635508
H       2.02626332      1.53415285      0.86222104
H       1.95529348      1.55059671     -0.89662718
H       0.54504740      2.03495971      0.05176754
H       2.84138309     -0.70802920      0.36660497
H       1.75309060     -1.95810061      0.12536142
