13
b3lypvtz=-200697.13551166
N       1.48447800     -1.11468282     -0.17554390
C       0.67138073      0.02001510      0.00531026
N       1.42595722      1.20044349      0.17035512
C      -0.66742107     -0.03109208      0.02397792
N      -1.56158232      1.05354602     -0.13389998
O      -1.29479544     -1.26743121      0.14929606
H       2.18430711     -1.19098647      0.55282392
H       0.92861156     -1.95729434     -0.21028588
H       0.85709780      2.01888882      0.32271517
H       2.07327070      1.35299104     -0.59391655
H      -1.92206288      1.44051955      0.73098417
H      -1.20232515      1.79164827     -0.72138989
H      -2.07980326     -1.23252936     -0.41026141
