12
b3lypvtz=-189808.98803929
O      -1.69302674     -0.75604630     -0.10676331
N      -1.79433271      0.65084937     -0.06869372
C      -0.67147086      1.24776144      0.00511058
N       0.66961438      0.81454670      0.05892709
C       1.05378608     -0.41622158      0.77939677
C       1.12921744     -0.36892110     -0.69592558
H      -2.61563411     -1.02267721     -0.15942441
H      -0.77709167      2.32753456      0.03260528
H       1.95167172     -0.30267803      1.37331452
H       0.26913161     -1.01615180      1.21576226
H       2.08251057     -0.22030943     -1.18676808
H       0.39552429     -0.93758662     -1.24764142
