12
b3lypvtz=-168953.50339563
C       2.94303638      0.08671873     -0.00004809
C       1.49323182      0.00275942     -0.00000187
C       0.29248281     -0.09116084      0.00004352
C      -1.15525603     -0.19224514      0.00010167
C      -1.90518437      1.11980687     -0.00003575
O      -1.71531139     -1.26824536      0.00024543
H       3.35526471     -0.40824615     -0.88159842
H       3.28381730      1.12322061      0.00046600
H       3.35538920     -0.40917739      0.88091922
H      -2.97585706      0.92913216      0.00008915
H      -1.62907750      1.70785418     -0.87789197
H      -1.62891688      1.70814491      0.87757411
