12
b3lypvtz=-145694.56912619
C       0.08493068     -1.38849241      0.00205739
C      -1.15990915     -0.76780568     -0.01333141
C      -1.24482998      0.62067568     -0.01539079
C      -0.08492769      1.38849306     -0.00204284
C       1.15990954      0.76780308      0.01334598
C       1.24482888     -0.62067439      0.01540534
H       0.15102984     -2.46884542      0.00362859
H      -2.06246653     -1.36515754     -0.02372176
H      -2.21341534      1.10359958     -0.02739602
H      -0.15102770      2.46884679     -0.00364311
H       2.06246530      1.36515469      0.02370711
H       2.21341215     -1.10359742      0.02738154
