17
b3lypvtz=-181311.13648344
C       2.18640875     -0.36418053      0.05426615
N       1.07141104      0.40876245     -0.47243348
C      -0.07947332      0.55363444      0.41905537
C      -1.01496911      1.62906008     -0.13447703
C      -0.83196982     -0.75755246      0.68363666
O      -1.29099718     -1.26503648     -0.57021906
H       2.57717806      0.12526741      0.94939752
H       1.95376284     -1.40642354      0.31946523
H       2.98916428     -0.38347329     -0.68385445
H       0.75396726      0.00789926     -1.34720121
H       0.30752614      0.89207048      1.38648529
H      -1.43071648      1.31915167     -1.09369828
H      -1.84790379      1.81356150      0.54644463
H      -0.46679474      2.55863229     -0.28039513
H      -1.67301185     -0.56619008      1.36100792
H      -0.16819422     -1.48039815      1.17024291
H      -1.71452787     -2.11496404     -0.42713304
