14
b3lypvtz=-195614.08770156
C       0.71856732      0.25636342      0.95482565
C       1.48704313     -0.40925378     -0.20926062
N       0.58682158      0.26648997     -1.18076315
C      -0.34554461      0.66534468     -0.09708181
C      -1.65631420     -0.08322743     -0.03594990
F      -1.44554812     -1.46424070      0.04806717
H       1.23473596      1.10549110      1.39712120
H       0.37420729     -0.40951634      1.74272206
H       1.40645466     -1.49840537     -0.20421941
H       2.53592239     -0.13001578     -0.32203198
H       0.18348791     -0.34672611     -1.87867220
H      -0.59327761      1.73284003     -0.12141775
H      -2.23432646      0.21811318      0.84182001
H      -2.25222923      0.09674314     -0.93515928
