18
b3lypvtz=-168833.59193883
C      -1.87267032     -1.15291779      0.13176952
N      -0.93089487     -0.05511609      0.27968147
C      -1.39988179      1.12858826     -0.42425832
C       0.41777253     -0.45050060     -0.11304769
C       1.50028699      0.52223473      0.35244401
N       2.82200107     -0.03371606      0.04739417
H      -2.85396246     -0.84969513      0.49970769
H      -1.99160035     -1.48374755     -0.91532769
H      -1.54102170     -2.00944352      0.71980594
H      -0.74768153      1.97828482     -0.22779046
H      -1.45142689      0.98249709     -1.51817085
H      -2.39833948      1.39080879     -0.07254690
H       0.50940331     -0.59169798     -1.20386881
H       0.61952323     -1.42327331      0.34420012
H       1.33415084      0.74036655      1.41584990
H       1.41364818      1.46761400     -0.18584143
H       3.54467256      0.65595100      0.21128850
H       3.02612066     -0.81623721      0.65871081
