12
b3lypvtz=-189840.15391227
C      -2.33004932     -0.00267786     -0.45145866
C      -1.27695617     -0.13823607      0.35327993
N       0.04945527     -0.03482777     -0.03006857
C       1.11240924     -0.17706456      0.81652505
N       2.34978885     -0.08988923      0.50446889
O       2.47015870      0.18424846     -0.88966471
H      -3.32868518     -0.10172753     -0.05670379
H      -2.22497500      0.20723632     -1.50789031
H      -1.40783002     -0.34808168      1.40826071
H       0.27322750      0.15808156     -0.99415222
H       0.89101140     -0.38414972      1.85554902
H       3.42254473      0.22718808     -1.00814533
