11
b3lypvtz=-199908.01856563
C      -1.80039510     -0.84190759      0.41648062
C      -0.86301061      0.01916023      0.01785109
O      -1.13656919      1.25951916     -0.43180243
N       0.50175808     -0.29756657      0.03333682
N       1.39740629      0.59107299     -0.37194867
N       2.58387384      0.19610225     -0.31317567
H      -2.83870468     -0.55710378      0.38795193
H      -1.53217453     -1.82517255      0.76912627
H      -0.29520674      1.68657816     -0.65820104
H       0.82888272     -1.20324067      0.35140313
H       3.15393992      0.97245837     -0.65102207
