17
b3lypvtz=-181324.03908851
C      -2.30960957     -0.02053773     -0.68570542
C      -1.53776383      0.02297741      0.63404455
C      -0.17240187     -0.66926588      0.58473080
C       0.86682314      0.01055271     -0.30686369
N       2.07772862     -0.77532748     -0.33132170
O       1.05987635      1.38799803      0.05943491
H      -3.29524512      0.43436146     -0.57548924
H      -2.45519243     -1.04891513     -1.02487694
H      -1.78925040      0.52074083     -1.47708482
H      -1.40190296      1.06193267      0.94151997
H      -2.13656826     -0.45612631      1.41302136
H       0.24251031     -0.72362564      1.59983967
H      -0.28551148     -1.70131386      0.24454947
H       0.50146588      0.07850955     -1.33200210
H       2.80020091     -0.29764458     -0.85618784
H       2.43086937     -0.94354208      0.60436446
H       1.31513632      1.42075404      0.98876654
