13
b3lypvtz=-179780.73084265
C       2.17178335     -0.82496065     -0.16727841
C       1.24795537     -0.06597530      0.40481212
C      -0.03436563      0.34717643     -0.25435536
O      -0.13098889      1.76997130     -0.13470481
C      -1.22535698     -0.30374336      0.42672085
N      -2.04352625     -1.12774171     -0.07517345
H       3.07089198     -1.11463717      0.35963093
H       2.06461933     -1.18458082     -1.18367968
H       1.37976471      0.29527374      1.41946584
H      -0.02118029      0.04088823     -1.30820230
H      -0.97615942      2.05242997     -0.50055367
H      -1.38123266      0.01189280      1.46119193
H      -1.79506663     -1.34470244     -1.04445398
