17
b3lypvtz=-181322.77807685
C      -2.33327566     -0.28422592      0.08815809
C      -0.90731196      0.02770079     -0.33740301
O      -0.64049194      1.37617913      0.03027577
C       0.10975196     -0.93994334      0.28054972
C       1.54047769     -0.75317497     -0.22681738
N       2.06516748      0.58184485      0.11975741
H      -2.63408153     -1.28106575     -0.23904676
H      -2.42607083     -0.22813535      1.17439340
H      -3.01755850      0.44433128     -0.34678493
H      -0.84264449     -0.07476773     -1.43310606
H       0.32289714      1.49489712     -0.03742629
H      -0.19713529     -1.96726512      0.06407088
H       0.08474921     -0.82443616      1.36978454
H       1.54668761     -0.83056250     -1.31703321
H       2.17220080     -1.56636475      0.15193979
H       2.25006976      0.64200334      1.11503436
H       2.94175054      0.76062907     -0.35452932
