12
b3lypvtz=-145608.33399442
C      -2.27463644     -1.03627166      0.16840696
C      -1.54364923     -0.12470720     -0.10141429
C      -0.65596056      0.98866790     -0.41115133
C       0.65594535      0.98865804      0.41120978
C       1.54366245     -0.12467930      0.10141899
C       2.27469280     -1.03619816     -0.16843790
H      -2.91848566     -1.84688942      0.40143695
H      -1.17984439      1.92843215     -0.21819797
H      -0.41136333      0.97639582     -1.47564997
H       1.17981595      1.92843664      0.21830230
H       0.41134510      0.97633091      1.47570740
H       2.91856596     -1.84678772     -0.40149791
