14
b3lypvtz=-169699.63836488
C      -1.72277739     -1.55482151      0.13161023
C      -1.02255105     -0.60993138     -0.11155088
C      -0.13055907      0.51954697     -0.37385333
C      -0.74521315      1.85244288      0.08137846
C       1.23528587      0.27754771      0.29960002
O       1.87394243     -0.90324718     -0.14575822
H      -2.35876883     -2.37978919      0.33563750
H       0.04772599      0.56091842     -1.45301543
H      -1.69673325      2.03222633     -0.41717569
H      -0.07247612      2.67817668     -0.15541002
H      -0.92365506      1.85110855      1.15727579
H       1.90493296      1.09970326      0.04454134
H       1.10212399      0.27488357      1.38856611
H       1.28893467     -1.64618312      0.04325513
