13
b3lypvtz=-179776.96400368
N       2.41115536      0.15185948      0.93407299
C       1.15637811      0.27634708      0.78348804
C       0.37022983      0.00812912     -0.43583504
C      -0.86221549      0.86084301     -0.73407787
C      -1.04659597     -0.54939271     -0.33145684
O      -1.62578739     -0.76423158      0.92322987
H       2.85134726     -0.16931339      0.06809865
H       0.58209848      0.61456541      1.64758337
H       0.94856146     -0.32604433     -1.28941625
H      -1.04410823      1.14935454     -1.75920088
H      -1.11803622      1.60598436      0.00696234
H      -1.33164261     -1.26513308     -1.09648951
H      -1.29148457     -1.59286791      1.28284113
