13
b3lypvtz=-177367.81072466
C       1.66197053     -0.57996733      0.44071644
N       0.24118079     -0.67310597      0.21633389
C      -0.51236832      0.39681918     -0.15686213
C      -0.14443779      1.69280600     -0.19562426
N      -1.86389623      0.14726779     -0.55168415
N      -2.16636116     -1.06044797     -0.57479891
H       1.88331668      0.08155089      1.28286602
H       2.04999169     -1.56775228      0.68180352
H       2.20189131     -0.19934154     -0.43517637
H      -0.17434186     -1.56634713      0.00522708
H      -0.88143033      2.42296294     -0.48628673
H       0.85090500      2.02408233      0.05545186
H      -3.14642031     -1.11852693     -0.87493661
