12
b3lypvtz=-168904.49152344
C      -1.21198061      0.86071807      0.15563662
C      -0.97048825     -0.57780192     -0.29251090
C       0.32262321     -0.18769619     -1.00283815
C       0.31784863      1.02639206     -0.00025508
O       0.86605554      0.18039025      1.05739339
C       0.41136076     -0.92973759      0.27951933
H      -1.75557191      1.42517523     -0.60165133
H      -1.62002793      1.05116493      1.14975564
H      -1.68868263     -1.33177138     -0.57912712
H       0.70250091     -0.35748139     -1.99839931
H       0.81361190      1.98668014     -0.08855714
H       0.74625037     -1.92533220      0.52573405
