13
b3lypvtz=-203063.41233589462
C      -1.74938215      0.01422645      0.18769426
N      -0.38411794      0.25634057     -0.26825628
C       0.63177370     -0.68976782      0.14924339
O       1.56795876     -0.02549099      1.00237543
C      -0.17138147      1.28930376     -1.10689710
O       1.11905416      1.49417089     -1.38415842
H      -2.38166985      0.77623349     -0.25732621
H      -1.81058633      0.08356453      1.27572915
H      -2.10073537     -0.97255220     -0.12377636
H       0.14630954     -1.51749865      0.66809327
H       1.14702959     -1.08019346     -0.73637359
H       2.24909728     -0.65444292      1.26602315
H       1.73665007      1.02610634     -0.78967802
