14
b3lypvtz=-167306.97979989
C       1.61730395      0.70509136      0.09912157
C       0.34338789     -0.01808475      0.49523870
C      -0.97217045      0.37929985     -0.18179159
N      -1.60359970      1.42918269     -0.45802151
C      -1.23817386     -1.07757177     -0.50639893
N       0.16198489     -1.38048095     -0.08989788
H       1.59532335      1.74347343      0.43833370
H       2.48802441      0.22559655      0.54956871
H       1.74151564      0.69125806     -0.98350754
H       0.22295491     -0.00024976      1.58693379
H      -1.11979605      2.25879196     -0.10911776
H      -2.01822011     -1.51138073      0.12875730
H      -1.46165197     -1.31045550     -1.54866447
H       0.24311710     -2.13447045      0.57944591
