14
b3lypvtz=-167271.72349385588
C       0.37180411     -0.73252538      0.36999891
C      -0.90670637     -1.26723837      0.43945945
C      -2.09778132     -0.50907538      0.27364082
N      -2.14225947      0.77288706      0.06411140
C       0.74191154      0.58044805      0.19038271
N       2.19030668      0.84895031     -0.01273781
H       2.71890054      0.03260612      0.29872850
H       2.46608979      1.02703542     -0.98900162
H       2.51778853      1.64679531      0.53500629
H       1.18964480     -1.44903541      0.49569290
H      -1.00681939     -2.32634091      0.63080737
H      -3.02156210     -1.09995439      0.33346698
H      -3.10909137      1.07397869     -0.03299189
H       0.08777402      1.40146890     -0.04038632
