10
b3lypvtz=-212437.83949379
N      -2.13961440      0.44197617     -0.00007439
C      -1.49818860     -0.62826044      0.00006003
O      -0.12001351     -0.86495225      0.00017622
C       0.80065501      0.15776523      0.00016445
N       2.04430835     -0.37537747      0.00027487
O       0.54528603      1.33769995      0.00006416
H      -1.53018337      1.25728474     -0.00009838
H      -1.98027571     -1.60091398      0.00010596
H       2.82905081      0.24927681      0.00037071
H       2.18400840     -1.36859675      0.00045236
