12
b3lypvtz=-187435.22357120606
C       1.35672146      0.05142645     -0.09426521
N       0.12199947      0.16496617     -0.41228999
C      -0.80174539     -0.72327928      0.04509569
N      -2.07416287     -0.57627992     -0.30493871
N      -2.70065672      0.29828106     -1.05145929
N       2.30254306      0.92272613     -0.53479731
H       1.74629647     -0.74389854      0.54828746
H      -0.57306413     -1.56465713      0.69080279
H      -2.69642079     -1.27829493      0.07784362
H      -1.97868064      0.94414221     -1.37497283
H       3.26418363      0.81962916     -0.27647886
H       2.03298643      1.68523863     -1.13105942
