19
b3lypvtz=-158769.720191
C       2.23268299     -0.20456167     -0.75923575
C       1.58048682      0.18470857      0.56645480
C       0.19224856     -0.42751349      0.76693921
N      -0.78980004     -0.02172880     -0.23664652
C      -1.93808882     -0.91204159     -0.25735853
C      -1.20804093      1.36257690     -0.08879426
H       3.21526607      0.25749623     -0.86733528
H       1.61418976      0.10217727     -1.60222657
H       2.36538446     -1.28717484     -0.82587228
H       2.20784239     -0.14341985      1.39996654
H       1.52680707      1.27319563      0.64829220
H      -0.16654428     -0.19786314      1.78726470
H       0.28526743     -1.51505920      0.70848075
H      -1.61277468     -1.93551685     -0.44651121
H      -2.50921056     -0.90467758      0.68849607
H      -2.61814029     -0.61977856     -1.05884962
H      -1.71485343      1.55378722      0.87449263
H      -1.89928792      1.62456861     -0.89064322
H      -0.35304659      2.03353014     -0.15717366
