13
b3lypvtz=-184795.905402
C      -2.07524570     -0.94544689      0.00000201
C      -0.74278451     -0.86767413      0.00000052
C       0.02949815      0.37040332      0.00000001
C      -0.67182757      1.70100722      0.00000168
C       1.36322721      0.34768854     -0.00000141
F       2.07166497     -0.80119117     -0.00000478
H      -2.57506826     -1.90418999      0.00000223
H      -2.70943000     -0.06889541      0.00000281
H      -0.16430845     -1.78332984     -0.00000065
H       0.04089917      2.52501872      0.00000052
H      -1.31045704      1.80732103     -0.87966804
H      -1.31045369      1.80732055      0.87967390
H       2.00496473      1.21778905     -0.00000481
