12
b3lypvtz=-166538.32839764675
C       2.05285115      0.09669766     -0.05337199
C       0.69906386     -0.03559930     -0.00386701
C      -0.17642284     -1.13657670      0.23976129
N      -1.47011867     -0.67175644      0.16375760
C      -1.51198304      0.62378557     -0.10550278
N      -0.22036163      1.03239551     -0.21156644
H       2.69009872     -0.75605445      0.11379814
H       2.51543106      1.05011087     -0.25930756
H       0.04175046     -2.16433986      0.45050097
H      -2.28896983     -1.23910002      0.29508845
H      -2.39155932      1.22611010     -0.21676489
H       0.06022006      1.97432706     -0.41252578
