12
b3lypvtz=-168944.2398686
C      -1.41250580     -0.02349686      0.20001628
C      -0.76455603      1.11991267     -0.02510811
C       0.63403637      0.80042559     -0.41665114
C       1.43594927      0.02666012      0.62041504
C       0.63182693     -0.71754898     -0.39602763
O      -0.67165853     -1.15361803     -0.03561538
H      -2.42089671     -0.20522892      0.53523316
H      -1.18199835      2.10885911      0.06395286
H       1.15058320      1.38425809     -1.16605126
H       2.50867633     -0.01202169      0.48918056
H       1.09286932      0.04847735      1.64570921
H       1.09654599     -1.36000645     -1.12873559
