14
b3lypvtz=-193007.70245946
O       1.92058545     -0.58272510     -1.47427707
C       1.59027906      0.22801215     -0.34575782
C       0.29883131     -0.30575413      0.25537105
C      -0.87959223     -0.15000754     -0.66883837
C      -2.22943669      0.11916672     -0.17208299
O      -1.44811553      1.16801527     -0.75400296
H       2.64456493     -0.16943469     -1.95199254
H       2.38881252      0.18968783      0.40415067
H       1.45116453      1.27346391     -0.64140014
H       0.43420288     -1.36477020      0.49466335
H       0.09688862      0.22292780      1.18989208
H      -0.78030030     -0.64083960     -1.63193006
H      -3.09249477     -0.19325051     -0.75163372
H      -2.39548979      0.20550809      0.89783850
