17
b3lypvtz=-157953.62798693494
C       0.40139010     -1.42437630      0.72673938
C       0.39341445     -0.47557969     -0.43142523
N      -0.98969929     -0.21068947     -0.93813901
H      -0.88345759      0.33226333     -1.79344457
H      -1.40583206     -1.09800267     -1.21738697
C      -1.98153060      0.51186256     -0.04239328
C       1.18835599      0.70286565     -0.42743159
C       2.23909669      1.02399204      0.36709929
H       0.10121079     -0.99257288      1.70058880
H       1.41467132     -1.80503680      0.86757337
H      -0.23322125     -2.30122609      0.54867902
H      -2.12735004     -0.08770566      0.85057510
H      -1.54078248      1.46690218      0.22633651
H      -2.92996804      0.65177361     -0.56306478
H       0.95064511      1.42352800     -1.21703916
H       2.84008702      1.89919031      0.16620510
H       2.56296985      0.38281188      1.17652806
