8
b3lypvtz=-165041.65235117
C      -0.00000094      1.74430031      0.00000000
C      -0.00000026      0.40519008      0.00000000
C      -1.22102483     -0.34706529      0.00000000
N      -2.20345603     -0.94735586      0.00000000
C       1.22102503     -0.34706413      0.00000000
N       2.20345647     -0.94735430      0.00000000
H      -0.92859973      2.29579862      0.00000000
H       0.92859729      2.29579956      0.00000000
