15
b3lypvtz=-180551.21213155
C       1.98931606     -0.50125880      0.33967006
N       0.80737225     -0.30418388     -0.46856578
C      -0.28963921      0.37106495      0.02438232
C      -0.32396890      1.08632379      1.16005796
C      -1.49208451      0.28354265     -0.88504701
O      -1.79710199     -1.06347334     -1.26413678
H       2.69823405     -1.11919959     -0.20884456
H       1.77251081     -0.98380697      1.30203639
H       2.47132241      0.45610057      0.54971006
H       0.56340338     -1.06452000     -1.08338192
H      -1.22224022      1.61866534      1.43400078
H       0.53129007      1.19324008      1.81047741
H      -2.34874100      0.76751046     -0.41169534
H      -1.28371908      0.79740933     -1.82527592
H      -2.07595415     -1.53741460     -0.47338765
