11
b3lypvtz=-204934.71591202
C      -1.93243034      0.03011257      0.14125420
N      -1.00401199     -0.99201957     -0.32460784
C       0.23789031     -0.76446193     -0.31003953
N       0.80515435      0.45037729      0.14044758
C       2.03946308      0.63643223      0.14055876
F       2.96349975     -0.26016993     -0.27210638
H      -1.84808744      0.94657452     -0.44725871
H      -1.74525402      0.29676793      1.18393015
H      -2.94696059     -0.35270086      0.05251651
H       0.91336186     -1.54071644     -0.66172954
H       2.51737503      1.54980419      0.47582229
