15
b3lypvtz=-180566.82882805
C       1.96525444     -0.87907362     -0.41912228
C       0.87785244     -0.55017753      0.61334803
C      -0.10254811      0.47896880      0.11454574
O       0.51080930      1.68858546     -0.03360273
N      -1.32851104      0.39378027     -0.17379262
C      -2.08560226     -0.83197488     -0.06803043
H       2.51203777      0.01765751     -0.70586628
H       2.67549538     -1.59646695     -0.00718987
H       1.53187955     -1.31431669     -1.32062355
H       0.34982178     -1.45607624      0.90240093
H       1.34336520     -0.14579718      1.51492791
H      -0.17063489      2.28768372     -0.37188775
H      -2.92128447     -0.68104002      0.61930050
H      -2.51977851     -1.07059894     -1.04157692
H      -1.52065559     -1.70610571      0.27173131
