15
b3lypvtz=-157230.44366213
C       2.58520808      0.02216478      0.16228352
C       1.39373674     -0.04333279     -0.41990246
C       0.09099484     -0.02417258      0.30476671
C      -0.95156310      1.07843021     -0.03860843
C      -2.00696081     -0.04653316      0.00949602
N      -0.90900143     -1.02880163     -0.14957760
H       3.50213076      0.02372938     -0.41247643
H       2.68568091      0.07953315      1.24044439
H       1.31668463     -0.11325674     -1.50114180
H       0.26912755     -0.05250436      1.38756468
H      -1.04842784      1.90064239      0.66620243
H      -0.80878472      1.47358490     -1.04306598
H      -2.51571143     -0.09223521      0.97932930
H      -2.75726053     -0.07336174     -0.78212052
H      -0.97127065     -1.86887960      0.41288917
