13
b3lypvtz=-203105.4362061
C      -1.56442504     -0.06750639     -0.34000384
C      -0.22332923     -0.32292518      0.27895343
N       0.01152972     -0.82857008      1.41728143
C       1.00461705      0.10195141     -0.53983023
O       0.95599661      1.50610594     -0.75974826
O       2.17709105     -0.27876575      0.09547643
H      -2.37544516     -0.32543724      0.33994992
H      -1.67279334     -0.65569446     -1.25491749
H      -1.64710001      0.98103541     -0.62785706
H      -0.83562374     -1.06101920      1.93244156
H       0.95793179     -0.33675150     -1.54154557
H       1.30890624      1.91984384      0.03747123
H       1.90254406     -0.63226678      0.96222845
