11
b3lypvtz=-202294.82180207
C       2.45604984      0.38838528      0.49706876
N       1.50326038     -0.44503100      0.55188955
O       0.28128963      0.15076228      0.23558264
C      -0.76008214     -0.76096349      0.29561286
C      -1.99355084     -0.35280343      0.01990107
O      -2.35546736      0.91602565     -0.32906419
H       2.31836113      1.43361190      0.23436476
H       3.44010035      0.00537197      0.72914741
H      -0.49709940     -1.76880373      0.56899118
H      -2.82671661     -1.03684703      0.05755812
H      -1.56614497      1.47029160     -0.34309590
