10
b3lypvtz=-217411.99849652
C       0.06341156      0.38191530      0.33120980
C      -1.17384918      0.17927114     -0.12752723
O      -1.54017344     -0.70946707     -1.05336875
F      -2.21364374      0.89292539      0.32964228
C       1.21704876     -0.36869655     -0.13674689
N       2.42611334     -0.23969187      0.24660601
H       0.18908053      1.14534599      1.08599511
H      -2.49202108     -0.64824231     -1.19954266
H       1.01815870     -1.12260470     -0.89894291
H       2.50587456      0.48924469      0.95944014
