13
b3lypvtz=-231405.72760414
O       1.40751480     -1.21149428      0.69225419
C       1.05118108     -0.60347923     -0.53775855
C      -0.05189573      0.43408501     -0.36605319
O       0.44662646      1.40155247      0.55558723
C      -1.33896699     -0.17690661      0.15231876
F      -2.25025350      0.86036407      0.40744153
H       1.60973750     -0.49480882      1.30543142
H       1.91447571     -0.11528359     -1.00320734
H       0.71757407     -1.40180065     -1.20261022
H      -0.24984784      0.90504864     -1.33785886
H      -0.29192905      1.95494718      0.83266038
H      -1.79033755     -0.84214054     -0.58564896
H      -1.17377896     -0.70998365      1.08744362
