15
b3lypvtz=-157235.67594908
C       1.54192387     -0.06746441      0.03614485
C       0.67344354      1.20187375      0.16889343
C      -0.67345281      0.77531208     -0.40492672
C      -1.58612970     -0.00808214      0.45691825
N      -0.73205268     -0.70031894     -0.51597237
C       0.53066601     -1.22746755      0.05696601
H       2.29866751     -0.15327630      0.81663156
H       2.06181139     -0.05574294     -0.92349505
H       0.58167841      1.51163848      1.21181186
H       1.09319538      2.04352856     -0.38093494
H      -1.07308117      1.32688184     -1.24740257
H      -1.33006309     -0.09374562      1.50910926
H      -2.64855018     -0.04913307      0.24702125
H       0.36678800     -1.59789510      1.07299921
H       0.86384053     -2.06999163     -0.54893903
