18
b3lypvtz=-171245.17854898
C      -1.02587015      1.35554338     -0.56930993
C      -0.80784904     -0.14040177     -0.33078505
C      -2.04075188     -0.79612271      0.29736217
C       0.42055254     -0.39497324      0.53556017
O       1.57629362      0.09693888     -0.11842682
C       2.75633880     -0.08202340      0.63171827
H      -1.23523324      1.87107943      0.37236018
H      -0.14368086      1.81308350     -1.01448269
H      -1.87383931      1.52452342     -1.23547717
H      -0.61690256     -0.61817316     -1.29703030
H      -2.26427560     -0.35910665      1.27421507
H      -1.90022966     -1.87004940      0.43583072
H      -2.91900440     -0.65393542     -0.33403414
H       0.53168947     -1.47225232      0.72706798
H       0.30216210      0.09992802      1.51249475
H       3.58045326      0.32214503      0.04624605
H       2.70932055      0.44743350      1.59217378
H       2.95082636     -1.14363709      0.83281841
