16
b3lypvtz=-168064.42739699
N       2.50532123      0.03363380     -0.24430614
C       1.25070794      0.75279902     -0.33302532
N       0.07385008     -0.09112502     -0.45284521
C      -0.39434959     -0.83261495      0.73908670
C      -1.84861269     -0.54144415      0.30922025
C      -1.24564471      0.56604253     -0.58210133
H       2.56609392     -0.64537588     -0.99469350
H       2.56743581     -0.47750386      0.62792086
H       1.27501600      1.39793282     -1.21513901
H       1.18320270      1.41079297      0.55037625
H      -0.07354639     -1.87365717      0.79579008
H      -0.13472494     -0.32851080      1.68261092
H      -2.28358083     -1.35336985     -0.26970022
H      -2.54498410     -0.23349898      1.08508662
H      -1.61220052      0.66587355     -1.60501678
H      -1.28418392      1.55012598     -0.09326417
