8
b3lypvtz=-211625.15373118
C       1.72644193      0.04188617      0.64731104
N       2.82561032     -0.03027465      0.97881221
C       0.35552706      0.15074054      0.24115200
N      -0.18069470     -0.85978354     -0.33344291
O      -1.51436192     -0.54804259     -0.64744220
O      -0.23216224      1.32529263      0.51241769
H      -1.83406823     -1.35199692     -1.06947308
H      -1.14629222      1.27217836      0.19200834
