13
b3lypvtz=-156449.82128048
C      -0.88215226     -0.25864489      0.91179094
C      -0.71677557      0.70353255     -0.31018318
C       0.76115851      1.11314898     -0.15027696
C       1.35269247     -0.05696769      0.09003845
C       0.16326619     -1.03735380      0.04739044
N      -0.64215176     -0.55724342     -1.13245476
H      -0.56583972      0.10164926      1.88707191
H      -1.85547646     -0.74430262      0.94274540
H      -1.45479304      1.45329907     -0.58230657
H       1.17151280      2.10972178     -0.19275079
H       2.38466725     -0.28992962      0.30007515
H       0.34356744     -2.10420663      0.14831368
H      -0.05967586     -0.43270294     -1.95945371
