12
b3lypvtz=-166547.0619741
C      -2.91792916     -0.16123017      0.00003470
C      -1.70531760      0.39212391      0.00000344
N      -0.55447917     -0.38872842     -0.00000337
C       0.56862253      0.20769568     -0.00002688
N       1.75917492     -0.51877708     -0.00011888
C       2.83761884      0.15291313     -0.00024717
H      -3.80890849      0.44991602      0.00008280
H      -3.02932259     -1.23664647      0.00002249
H      -1.59215904      1.47829717     -0.00000904
H       0.65137299      1.30822940     -0.00016547
H       2.86547571      1.24931099      0.00016381
H       3.78903507     -0.37031617      0.00004657
