10
b3lypvtz=-217410.71458704
C      -0.98780614     -1.03673787     -0.42984424
C      -0.44210190      0.17738437     -0.51361321
O      -1.10966665      1.22605561     -1.06327167
N       0.86470850      0.51824477     -0.12611489
C       1.28634849      0.16472406      0.99326047
F       2.53923759      0.43980958      1.35382541
H      -0.43118687     -1.86373773     -0.02080193
H      -1.97744502     -1.21438539     -0.82053077
H      -0.49069539      1.96115120     -1.14465326
H       0.74880739     -0.37240859      1.77194411
