15
b3lypvtz=-157238.96352769
C       1.81387160     -0.80572641     -0.22907651
C       1.49705185      0.50149183      0.45051163
C       0.55825426     -0.05790339     -0.58343472
C      -0.79479656     -0.60214869     -0.16526927
C      -1.82661546      0.47791977     -0.01689721
N      -2.44942696      0.66423628      1.07006425
H       1.71180495     -1.71416840      0.34952063
H       2.61965866     -0.82689145     -0.94976686
H       2.09008435      1.36837994      0.19414546
H       1.17665011      0.47060152      1.48323060
H       0.56418524      0.44071150     -1.54629951
H      -0.71982687     -1.13440640      0.78425412
H      -1.14339607     -1.31840220     -0.91910043
H      -1.99223503      1.09505014     -0.91011293
H      -3.10526406      1.44125594      0.98823077
