11
b3lypvtz=-179040.26037632
N       1.15128088      0.01563191      0.01901890
C       0.31623525      0.08633766      1.14133276
C      -0.34257168     -0.92142904      1.77698902
O      -0.97842549     -0.44031851      2.89603872
C      -0.71950150      0.88588093      2.95171413
C       0.06581215      1.26903336      1.91568990
H       1.02294221     -0.82416901     -0.52589584
H       1.07835122      0.82474657     -0.58027209
H      -0.44510783     -1.97402144      1.58688305
H      -1.15465667      1.42150288      3.77653111
H       0.43564145      2.26170468      1.72037036
