16
b3lypvtz=-170466.21044546
C       2.66319539      0.03337674      0.17659810
O       1.37942141      0.40067624     -0.27616198
C       0.38375158     -0.55265156      0.05581483
C      -0.93540470     -0.11458750     -0.50779657
C      -1.77045672      0.89133407      0.23300177
C      -2.20993620     -0.54664808      0.16740931
H       3.35350733      0.81884087     -0.12652461
H       2.69498981     -0.06424125      1.26987660
H       2.99160793     -0.91762271     -0.26308178
H       0.66509801     -1.53750979     -0.34565597
H       0.31031039     -0.65639093      1.14905816
H      -0.95665898     -0.05508321     -1.58896223
H      -2.31895965      1.62279295     -0.34359930
H      -1.38668807      1.26238267      1.17384322
H      -2.13011417     -1.14188531      1.06761010
H      -3.05577634     -0.79974419     -0.45626165
