9
b3lypvtz=-222401.42695712
N       2.68410001      0.27258740     -0.22916319
N       1.49478263      0.47033024     -0.07248262
O       0.82982203     -0.78838700     -0.22175407
C      -0.52221195     -0.72134894     -0.07110511
N      -1.16751829      0.33508515      0.17845431
O      -2.54600687      0.03859513      0.26870482
H       3.12277423      1.19290280     -0.11518902
H      -0.97041365     -1.70185316     -0.19506996
H      -2.92552815      0.90198837      0.45760484
