12
b3lypvtz=-166550.42312192
N       2.61443298     -0.00006681     -0.29513184
C       1.52631107     -0.00004313      0.08126345
C       0.15077543     -0.00002318      0.53400358
C      -0.82778916      1.05634516     -0.05401485
N      -1.86341745      0.00003932     -0.11107100
C      -0.82783605     -1.05631566     -0.05407369
H       0.12246992     -0.00005265      1.62242153
H      -0.48655519      1.41623800     -1.02923923
H      -1.07033289      1.90645673      0.58283951
H      -2.43837646      0.00007536     -0.94364392
H      -0.48661787     -1.41616933     -1.02931803
H      -1.07041734     -1.90645183      0.58273349
