15
b3lypvtz=-157244.89880095
C      -2.24246637     -0.93071754      0.18031001
C      -1.49924567     -0.04260711     -0.46652362
C      -0.70573656      1.05744063      0.17457385
C       0.80136695      0.99881724     -0.15264529
C       1.49580459     -0.19434734      0.44728750
N       2.22694213     -1.05000752     -0.13113090
H      -2.32760542     -0.92144218      1.26090493
H      -2.79379079     -1.69938686     -0.34487528
H      -1.44137105     -0.09566510     -1.55104536
H      -0.84782377      1.03377981      1.25805017
H      -1.08565359      2.02469874     -0.16907505
H       0.95714553      1.00852999     -1.23496474
H       1.27463086      1.90213434      0.24770893
H       1.34941972     -0.32011027      1.52465274
H       2.29718944     -0.84932385     -1.13210989
