14
b3lypvtz=-146400.40005299
C      -2.87228147      0.71262633      0.00000131
C      -2.12984743     -0.39700533      0.00010537
C      -0.71006948     -0.43018098     -0.00001639
C       0.49330031     -0.50763541     -0.00017523
C       1.95043992     -0.56485247     -0.00012363
C       2.61522369      0.81996580      0.00004525
H      -2.42266059      1.69632083     -0.00013133
H      -3.95193919      0.65651602      0.00004861
H      -2.62571045     -1.36321869      0.00028260
H       2.28472195     -1.13323868      0.87318783
H       2.28482551     -1.13306835     -0.87350607
H       2.32318761      1.39023800     -0.88159454
H       2.32306468      1.39008097      0.88174577
H       3.70129995      0.71938397      0.00011146
