12
b3lypvtz=-166527.52830699
C       2.10052286     -0.72473313     -0.00887435
C       1.37150700      0.38859723     -0.08042897
C      -0.08215282      0.46564355      0.04316118
C      -0.76454070      1.61641215      0.04541909
N      -0.74358716     -0.78419278      0.28202492
N      -1.84836608     -0.90391392     -0.26540860
H       3.17550341     -0.69118647     -0.11949778
H       1.64705786     -1.68910429      0.17144315
H       1.86244519      1.33984753     -0.25436120
H      -1.83738419      1.62283102      0.16644825
H      -0.25299779      2.56376699     -0.05133989
H      -2.22520658     -1.81639689      0.03016119
