12
b3lypvtz=-189871.41961573
C      -2.63314886     -0.13621871      0.00001161
N      -1.28296463      0.38148655      0.00000185
C      -0.31886011     -0.43086012     -0.00001120
C       1.08596980      0.07070229     -0.00000206
N       1.47559836      1.27139408      0.00000308
O       1.96552804     -0.96000087      0.00000320
H      -3.15848932      0.24915980     -0.87607529
H      -3.15847431      0.24915418      0.87611004
H      -2.68628420     -1.23161233      0.00000847
H      -0.44228152     -1.51941160     -0.00000141
H       0.66774220      1.89148331     -0.00000170
H       2.85044356     -0.56796258      0.00001341
