13
b3lypvtz=-177365.59697164
C      -1.52906356     -0.93946645      0.44558491
N      -1.55093763      0.24240642     -0.39787369
C      -0.59296284      1.07606766     -0.36495343
C       0.68690437      1.02218499      0.38762376
N       1.59137027      0.11476419      0.34810517
N       1.39915928     -1.00977110     -0.38655292
H      -0.76435865     -0.93025401      1.22655781
H      -1.37787645     -1.82547148     -0.17634260
H      -2.51475924     -1.04219556      0.90182535
H      -0.72643912      1.98553097     -0.95738236
H       0.94233354      1.89680941      0.97856770
H       2.27916887     -1.43905799     -0.62144419
H       0.75549316     -0.94626104     -1.16983249
