9
b3lypvtz=-199159.25750688397
C       0.78680864     -0.22198682     -0.33766406
N       1.95114560     -0.19702885      0.20556262
N       2.98636519     -0.17392750      0.69139206
N      -0.35084475      0.18104383      0.38902777
C      -1.59444361      0.15998379     -0.16894180
O      -1.83010465     -0.19563162     -1.30381798
H       0.66444486     -0.55072213     -1.35358818
H      -0.24725825      0.49185707      1.34102363
H      -2.36611301      0.50641222      0.53700594
