7
b3lypvtz=-177482.27652875
C      -1.86083084      0.27186529     -0.33018328
C      -0.76989252     -0.09633744      0.00942977
C       0.54170114     -0.53118333      0.41227360
O       0.76026634     -1.49614298      1.10369450
C       1.64422467      0.30563136     -0.09013235
N       2.51408991      0.95268135     -0.47708078
H      -2.82955869      0.59348574     -0.62800148
