14
b3lypvtz=-193028.19288399
C      -2.53262809     -0.03463136      0.17468877
C      -1.18630328     -0.67309252      0.02988420
C      -0.03983696     -0.01915215     -0.15430096
O       0.01025087      1.34902346     -0.22209254
C       1.29239821     -0.68367920     -0.35345647
O       2.32021063     -0.01896095      0.39654821
H      -3.19229213     -0.30380276     -0.65557813
H      -2.45355457      1.05049079      0.20258841
H      -3.02956185     -0.36612694      1.09047486
H      -1.13294544     -1.75476019      0.05467426
H       0.93440527      1.60402730     -0.09546995
H       1.23371138     -1.74617601     -0.10965930
H       1.61011241     -0.58756284     -1.39434952
H       2.15516955     -0.17253262      1.33343515
