12
b3lypvtz=-166569.52265288
C       0.15094087     -1.09300204      0.47172203
C      -0.47379909      0.12225530     -0.16899394
C       0.52681688      1.01286419     -0.37918121
C       1.73458130      0.37620771      0.11847206
N       1.57673221     -0.80478326      0.61016077
N      -1.80025480      0.18304059     -0.50416946
H      -0.28070659     -1.30849313      1.45468841
H       0.01013747     -1.98830111     -0.14136134
H       0.45735105      1.99264032     -0.82597371
H       2.71704274      0.83766617      0.09746774
H      -2.43474302     -0.41583966     -0.00357609
H      -2.18409902      1.08574492     -0.72925524
