14
b3lypvtz=-190650.29191111
N       2.65639135     -0.26781421     -0.10143631
C       1.37237485      0.38996935      0.16181155
C       0.22464733     -0.55888456     -0.16322327
C      -1.13928557      0.11018882     -0.06841050
N      -2.18950672     -0.74229345      0.12082071
O      -1.29578896      1.31335153     -0.16117077
H       2.83940176     -0.98506311      0.59161473
H       3.41372365      0.40041743     -0.02675848
H       1.25972817      0.75357805      1.19152706
H       1.29228736      1.26342995     -0.48362055
H       0.25491499     -1.43715568      0.48888883
H       0.35261838     -0.92773456     -1.18535870
H      -3.12015309     -0.36343047      0.07142918
H      -2.07356150     -1.73904209      0.09238953
