12
b3lypvtz=-166549.93326293
C       2.32487376     -0.25498878      0.33748646
C       1.16566243     -0.63062227     -0.19280998
C      -0.05568827      0.20936394     -0.22100540
N      -0.12825455      1.48135080     -0.20301985
N      -1.23539519     -0.55645309     -0.35786534
C      -2.21167592     -0.31604465      0.40593480
H       3.18268309     -0.91320034      0.33436885
H       2.45705456      0.71509611      0.80212553
H       1.05103779     -1.62233069     -0.61345781
H       0.80375796      1.89409088     -0.19603757
H      -2.17063661      0.43266520      1.20062942
H      -3.13901804     -0.86712712      0.26934788
