15
b3lypvtz=-157239.22948503
N       2.54007697      0.44764447      0.10731103
C       1.46833461     -0.33749609      0.55328483
C       0.18483742     -0.12959121      0.27755085
C      -0.54247994      0.83412724     -0.64356595
C      -1.83154292     -0.01477157     -0.42548081
C      -1.10045821     -0.82381678      0.69010172
H       3.38830755     -0.07019807     -0.06660425
H       2.31774410      1.04375862     -0.67697631
H       1.75658315     -1.13804366      1.22620074
H      -0.62549972      1.85184886     -0.25104580
H      -0.17932610      0.90182452     -1.67304127
H      -2.08406346     -0.62445248     -1.29148268
H      -2.71885241      0.53446992     -0.11527875
H      -1.12942288     -1.91078016      0.59395925
H      -1.44423816     -0.56432363      1.69506739
