15
b3lypvtz=-180539.52715841
C      -1.06652862     -0.84537134      0.67753647
C      -0.12122049      0.05838172     -0.07900828
C      -0.62926722      1.30260979     -0.70019468
N       0.22599524      1.37262764      0.50188337
C       1.09329069     -0.61915903     -0.68033743
O       1.99113186     -1.07030244      0.32552666
H      -0.52831129     -1.39150245      1.45380217
H      -1.86948525     -0.27425953      1.14736409
H      -1.52333715     -1.57905814      0.00968145
H      -0.17550315      1.68770797     -1.60546148
H      -1.68421464      1.52693889     -0.59379138
H      -0.34608102      1.55386845      1.32039572
H       1.59310514      0.07294427     -1.36626850
H       0.79889281     -1.50486509     -1.24619456
H       2.24153307     -0.29056073      0.83506639
