13
b3lypvtz=-203117.982341871
C       1.62986263     -0.04265659     -0.08784613
N       0.35820560     -0.72472874     -0.33567675
C      -0.71224430     -0.35814724      0.58801938
C      -1.54244925      0.81711831      0.05758986
O      -1.36304890      1.04813611     -1.25238229
O      -2.29994351      1.44868019      0.74051677
H       1.50282644      1.03126174     -0.23063686
H       2.37274879     -0.38819443     -0.80570899
H       2.01686263     -0.20594269      0.92570395
H      -0.69059962      0.39229834     -1.53818274
H       0.49264047     -1.72567022     -0.35037057
H      -1.40293564     -1.19640394      0.69782998
H      -0.36192534     -0.09575083      1.59114437
