12
b3lypvtz=-189865.25543329
C      -2.14881206     -0.59371375      0.00000405
N      -1.23729109      0.54139214      0.00001233
C       0.01696221      0.39096446     -0.00001209
O       0.82556125      1.48211755     -0.00001210
C       0.79176783     -0.88224713     -0.00002684
N       2.05371816     -0.98581437      0.00000327
H      -3.16893287     -0.21478387     -0.00006327
H      -2.03025900     -1.22361539      0.88615889
H      -2.03016861     -1.22369547     -0.88608153
H       0.24145160      2.25341089      0.00000578
H       0.19698855     -1.79234184     -0.00000764
H       2.48444002     -0.05868120      0.00000315
