11
b3lypvtz=-202337.16878318
O       1.91519571     -0.00151632      1.77924338
C       1.14670065     -0.05042870      0.86073784
O       1.54739724     -0.33625436     -0.41109176
N      -0.23973896      0.18015032      0.99640702
C      -0.94089300      0.83656814     -0.13402167
C      -1.15366339     -0.59589738      0.12303905
H       2.50399391     -0.47141968     -0.37202561
H      -0.35131578      1.10644463     -0.99911968
H      -1.67409166      1.56429874      0.18559502
H      -0.70835464     -1.29857543     -0.56753564
H      -2.04513007     -0.93326997      0.63377207
