15
b3lypvtz=-157213.38144736
C       1.86035032      0.12131383     -0.05861944
N       0.62127048      0.23099799      0.68660976
C      -0.40268896      1.22917843      0.26030651
C      -1.46066971      0.12722687      0.22852679
C      -1.04112847     -0.94283078     -0.74306484
C      -0.35962789     -0.84823406      0.59540960
H       2.44503635     -0.71039908      0.33852481
H       1.72664873     -0.04181200     -1.13951363
H       2.44648332      1.03236672      0.07486571
H      -0.20529259      1.71579642     -0.70147278
H      -0.55989900      1.99453622      1.02177112
H      -2.45940610      0.19925377      0.63088260
H      -0.52152678     -0.67627739     -1.65637756
H      -1.73213569     -1.76951546     -0.84741434
H      -0.35731400     -1.66170149      1.30956570
