13
b3lypvtz=-179801.80682765
C      -1.43403326      0.54388537      0.37537116
C      -0.32802139     -0.47515760      0.41891788
N      -0.43833122     -1.66297213      0.87152669
C       1.02648398     -0.12711135     -0.09318020
C       1.35030677      1.06323634     -0.60850468
O       1.92675875     -1.12988474      0.00427609
H      -2.35200695      0.12600496      0.78585521
H      -1.16791688      1.43140403      0.95098963
H      -1.62597580      0.86610396     -0.64891387
H      -1.37315216     -1.87085738      1.21343188
H       0.62403991      1.85532777     -0.68131833
H       2.35215348      1.25418931     -0.96361514
H       1.43969478     -1.87416855      0.40785711
