15
b3lypvtz=-157257.58369161
C      -2.20819356      0.02144764      0.02013490
C      -0.71905935      0.09629547     -0.00206522
C       0.07455402      1.17019775      0.07569504
C       1.51610075      0.74621895     -0.08854895
C       1.42010203     -0.77896151      0.13623858
N       0.01674366     -1.08876412     -0.20479736
H      -2.64553395      1.01088045      0.13954305
H      -2.56226376     -0.60873412      0.84189427
H      -2.58583702     -0.41728292     -0.90697026
H      -0.26501872      2.19295693      0.11737092
H       2.20605345      1.21939073      0.61185532
H       1.88112507      0.97034566     -1.09814452
H       1.62475608     -1.01337651      1.18799552
H       2.11036713     -1.35065759     -0.48316256
H      -0.35951284     -1.90686480      0.25435828
