15
b3lypvtz=-180538.60200237
N       2.52192842      0.03328457     -0.32930521
C       1.35582492     -0.57285191      0.32270854
C       0.08176537     -0.09834640     -0.32769778
C      -0.56821207      1.20339067      0.10513061
C      -1.22149730     -0.10153749      0.41767229
O      -2.41667263     -0.37569243     -0.26625750
H       2.49187609      1.04145456     -0.22606231
H       3.37952165     -0.28176175      0.10882811
H       1.29988528     -0.37227293      1.40348615
H       1.44198976     -1.65764314      0.20984019
H       0.00704040     -0.31308902     -1.38688668
H      -0.12548222      1.76025345      0.92107858
H      -1.03897434      1.80479330     -0.65951215
H      -1.20839554     -0.43051578      1.45342458
H      -2.45391977     -1.32058770     -0.44664343
