11
b3lypvtz=-202339.1385919
N       1.29901245     -0.51644360      0.39726375
C       0.12747824     -0.05136749     -0.30448134
C      -0.35720311      1.29958382      0.21624855
O       0.25673660      1.94576906      1.02255808
C      -1.04476176     -1.03680865     -0.19796006
O      -2.04637667     -0.94779690     -0.85550526
H       1.66833022      0.22597453      0.98149776
H       2.02538394     -0.82867203     -0.22989212
H       0.27376047      0.10697852     -1.38229694
H      -1.32140842      1.63566468     -0.20116955
H      -0.88095198     -1.83288194      0.55373713
