6
b3lypvtz=-164261.21052282
C       0.60146886     -0.00003979     -0.05334816
C      -0.60146825      0.00003979      0.05334787
C      -1.95886842      0.00012940      0.17375038
N      -3.11090943      0.00020677      0.27591476
C       1.95886808     -0.00012937     -0.17375035
N       3.11090917     -0.00020678     -0.27591448
