16
b3lypvtz=-170502.52996589
C       2.75264298      0.29613699      0.00001086
C       1.40877395     -0.43062507     -0.00024920
C       0.22294610      0.52802144      0.00018214
C      -1.13891690     -0.14736923      0.00005266
C      -2.34480040      0.77090345     -0.00007273
O      -1.26027046     -1.35134960      0.00006168
H       2.86205257      0.93320747     -0.88089036
H       3.58242184     -0.41205699     -0.00030431
H       2.86209989      0.93248091      0.88143110
H       1.33705053     -1.08672297      0.86915907
H       1.33701198     -1.08599881     -0.87020414
H       0.26270279      1.19676541     -0.86803567
H       0.26280199      1.19606048      0.86894364
H      -2.32697082      1.42218555      0.87701458
H      -3.25868277      0.18213445      0.00038316
H      -2.32734425      1.42130752     -0.87782447
