16
b3lypvtz=-170475.51853194
C      -0.00262114      1.50112329      0.55919174
C      -0.10125392      0.05562330      0.11932664
C       1.09604662     -0.80103550      0.46921774
O       2.30502010     -0.35525562     -0.14131070
C      -0.80889185     -0.25801831     -1.17851581
C      -1.44882567     -0.61331529      0.14047036
H      -0.86843674      2.07592918      0.22762197
H       0.04953543      1.57296974      1.64868200
H       0.89460895      1.96929936      0.15217647
H       0.89251439     -1.84691715      0.20756850
H       1.28658585     -0.76255588      1.54391581
H       2.16835591     -0.34450644     -1.09436607
H      -0.43689239     -1.07070821     -1.78992725
H      -1.22685801      0.56479340     -1.74251806
H      -1.50194622     -1.65995330      0.41023617
H      -2.29694132     -0.02747256      0.46833050
