14
b3lypvtz=-167318.0170703
C       0.73985859     -0.33060440     -0.24371400
C      -0.38066654     -0.91508799      0.62955050
C      -1.71038292     -0.22164741      0.53578000
N      -1.91966603      0.75279538     -0.24431783
C       1.27925573      0.97826756      0.27113655
N       2.46595226      1.22791199      0.63982964
H       1.55839391     -1.05118877     -0.31027848
H       0.34597618     -0.17305839     -1.25117671
H      -0.54500469     -1.96515080      0.36206200
H      -0.07779806     -0.93635270      1.68233409
H      -2.48690575     -0.63728778      1.18992602
H      -2.88175285      1.08165869     -0.17867242
H       0.55528469      1.79155249      0.32703539
H       3.05745548      0.39819214      0.54010940
