14
b3lypvtz=-167326.34314211
C      -1.28661840      1.40199853      0.00000296
C      -0.96283104      0.10604011     -0.00000082
C      -1.99851953     -0.98321588      0.00002084
N       0.34455521     -0.40140904     -0.00002929
C       1.52642709      0.30766181      0.00000516
N       2.71108890     -0.15395534      0.00001755
H      -0.56041958      2.20001901     -0.00001758
H      -2.32692270      1.68749937      0.00002697
H      -1.89322198     -1.62155642     -0.88181109
H      -1.89319096     -1.62155207      0.88185226
H      -3.00113497     -0.56392669      0.00003709
H       0.43256375     -1.40544962     -0.00001943
H       1.39128838      1.38480135      0.00003926
H       2.72444583     -1.17596012     -0.00001091
