13
b3lypvtz=-179777.71910466
C       3.00710952     -0.14314165      0.03794010
C       1.78376706      0.36437774      0.11548150
O       0.67461999     -0.35892656     -0.19744709
C      -0.54417419      0.29327958     -0.14957636
C      -1.65866386     -0.39118782      0.09552284
N      -2.96384720      0.09979593     -0.02938595
H       3.85572157      0.46927146      0.29963167
H       3.17842638     -1.16214374     -0.27844412
H       1.59456080      1.38365834      0.43756833
H      -0.52671421      1.34984932     -0.39570927
H      -1.58521562     -1.44629565      0.32787428
H      -3.59131580     -0.23398263      0.68758454
H      -3.02417244      1.10521968     -0.10772745
