12
b3lypvtz=-166551.54391659
C       2.92888012     -0.20261110     -0.00000932
C       1.74047742      0.40064730     -0.00000733
N       0.56029473     -0.33666601      0.00000938
C      -0.55200726      0.28845691      0.00000064
C      -1.82406598     -0.44140943      0.00006328
N      -2.98312558      0.08223052     -0.00000447
H       3.84512169      0.36991555     -0.00006848
H       2.99486150     -1.28179680      0.00003549
H       1.66539051      1.48953138     -0.00003292
H      -0.61221027      1.38625347      0.00002888
H      -1.73636182     -1.52738637      0.00002405
H      -2.92122405      1.10430458     -0.00002619
