13
b3lypvtz=-156495.60056899
C       1.95860320     -0.00163955     -0.37019961
C       0.66024833      0.01637621      0.44204888
C      -0.25731861      1.17218023      0.16072468
C      -1.44874835      0.67186580     -0.19294710
C      -1.30774470     -0.78824781     -0.14989829
N      -0.13891193     -1.18918336      0.19715065
H       2.56894069      0.87276321     -0.14120947
H       2.52927818     -0.89878168     -0.13507306
H       1.73997954     -0.00233076     -1.43819496
H       0.92099680      0.00912686      1.50872407
H       0.02134843      2.21238998      0.24170190
H      -2.34314608      1.21364534     -0.46190930
H      -2.09820449     -1.49390845     -0.38376337
