12
b3lypvtz=-168960.94469162
C      -0.61580676      1.22744433     -0.00025106
C       0.70951284      1.16348172     -0.00046065
O       1.43985824      0.00000453     -0.00015905
C       0.70952063     -1.16347745     -0.00046068
C      -0.61579857     -1.22744894     -0.00025107
C      -1.48720941     -0.00000522      0.00054749
H      -1.07612156      2.20626963     -0.00065579
H       1.35985607      2.02545810     -0.00097948
H       1.35986953     -2.02544956     -0.00097951
H      -1.07610681     -2.20627731     -0.00065582
H      -2.15493329     -0.00000742      0.87175283
H      -2.15652891     -0.00000742     -0.86941120
