13
b3lypvtz=-177378.19110561
C       2.68853872      0.47775436      0.01072030
N       1.76191136     -0.39191989      0.01022844
N       0.47679082      0.15077983      0.00682240
C      -0.41197256     -0.78008969      0.00109888
N      -1.73353414     -0.51240916     -0.01768492
C      -2.26489002      0.83728433      0.00924018
H       3.71356244      0.12678655      0.01455779
H       2.48520332      1.54826753      0.00740177
H      -0.13531806     -1.83368638      0.00440970
H      -2.36798493     -1.28642413      0.03672448
H      -1.88510423      1.41528600     -0.83394444
H      -3.35024227      0.78941771     -0.05068805
H      -1.97814345      1.35836594      0.92496946
