13
b3lypvtz=-179785.6096535103
C      -1.52836062      0.81492760      0.13258446
C      -1.29207047     -0.45047044     -0.25351907
N      -0.15555103     -1.19994613     -0.06243870
H       0.34087892      1.19603317     -0.97038391
H      -0.23421794     -2.18269435     -0.25449527
C       1.07775267     -0.75913092      0.45009322
C       1.69452029      0.38168310      0.12242047
O       1.28061822      1.32347876     -0.75827990
H      -0.84276174      1.37935895      0.74721690
H      -2.47877528      1.26631253     -0.10486566
H      -2.05798423     -0.99072652     -0.79849240
H       1.56305308     -1.41892905      1.15645378
H       2.63289813      0.64010331      0.59370606
