10
b3lypvtz=-189081.30073788
C      -2.77869130      0.20300256     -0.00000117
N      -1.71284998     -0.49002516      0.00004929
N      -0.56710067      0.32348545      0.00008992
C       0.51476346     -0.35132087      0.00003038
C       1.79680844      0.39065652      0.00002396
O       2.86996091     -0.16180240     -0.00012027
H      -3.72544386     -0.32442586     -0.00016770
H      -2.76452249      1.29199249     -0.00016072
H       0.53602885     -1.44025219     -0.00002937
H       1.69268863      1.49061846      0.00005369
