13
b3lypvtz=-177407.60847364
N       2.07985361     -0.01752758     -0.04449430
C       0.70394752     -0.08565382     -0.01181659
N       0.03910177     -1.17456157      0.07932660
C      -1.37306598     -0.80465308     -0.06959327
C      -1.41953239      0.73013333      0.13181172
N      -0.03302725      1.08781125     -0.20023155
H       2.50295495      0.81173261      0.34013773
H       2.52083241     -0.87208048      0.25633566
H      -1.72467157     -1.07535340     -1.07125775
H      -1.99600648     -1.33775058      0.64896722
H      -1.66369307      0.98798956      1.16853319
H      -2.12809163      1.23045641     -0.52708825
H       0.33503112      1.93743235      0.20095561
