18
b3lypvtz=-168836.51834181
C      -2.40102703     -0.39954780     -0.01446374
C      -0.91887428     -0.70462501     -0.21024455
N      -0.04284203      0.26877245      0.44333704
C      -0.06122686      1.57933306     -0.18932720
C       1.30155081     -0.22476514      0.66662410
N       2.05907147     -0.53248332     -0.55877159
H      -3.00668489     -1.20562025     -0.43264751
H      -2.63727307     -0.30411282      1.04633342
H      -2.70211343      0.52256149     -0.51292343
H      -0.70035659     -1.67971499      0.23122371
H      -0.69260253     -0.79415760     -1.28271422
H      -1.06460193      2.00216299     -0.15944999
H       0.59499341      2.25721018      0.36001883
H       0.26416962      1.55985754     -1.24179383
H       1.81213197      0.51392789      1.29505891
H       1.22365863     -1.14778572      1.24343504
H       2.59900436      0.26128405     -0.87816632
H       2.70697137     -1.29366799     -0.40556666
