11
b3lypvtz=-204953.76903865
N       2.13219293     -0.87226663      0.00042229
C       1.11111988     -0.13867548      0.00022718
F       1.22533960      1.23591377     -0.00250898
C      -0.25650499     -0.59106871      0.00589706
C      -1.31136643      0.24693343      0.00676145
N      -2.62361065     -0.11967655     -0.03823123
H       2.98729039     -0.32177226     -0.00177479
H      -0.38565857     -1.66483122      0.00684873
H      -1.14320122      1.31571826      0.00801644
H      -3.32400386      0.55417908      0.21107413
H      -2.87078806     -1.08219570      0.11682073
