11
b3lypvtz=-199922.13477403
C       0.07264978      1.46224368     -0.00001050
N      -0.00048334      0.00907488     -0.00000878
C      -1.20346920     -0.68043274     -0.00003284
O      -2.28679775     -0.15226372      0.00001719
N       1.10499058     -0.77521771     -0.00000139
N       2.17464100     -0.13901284      0.00002176
H       0.60906003      1.80819170      0.88258919
H      -0.94803605      1.83089561     -0.00003544
H       0.60910603      1.80819014     -0.88258264
H      -1.03367697     -1.76559007      0.00006152
H       2.91216689     -0.84735893      0.00002693
