12
b3lypvtz=-192265.7445384
C      -0.75376690      0.73772096     -0.31770312
C       0.39114034      0.14223399      0.45353609
C       1.53834671     -0.23898468     -0.10434867
O       2.60538119     -0.79914069      0.52233395
C      -1.92312537     -0.22682124     -0.37401640
O      -3.00889121     -0.01794482      0.09945157
H      -0.43989811      0.94061823     -1.34685326
H      -1.10444638      1.67053231      0.12717418
H       0.24348198      0.00487617      1.52105776
H       1.73628296     -0.11839488     -1.16243370
H       2.41206657     -0.90524663      1.46135451
H      -1.69657177     -1.18944869     -0.87955293
