15
b3lypvtz=-157239.62744526
N       2.34641021     -0.32885548     -0.32939497
C       1.50078104      0.49116872      0.13611132
C       0.07371039      0.24709174      0.51949463
C      -0.63767705     -1.07760431      0.14772425
C      -1.91072046     -0.25616346     -0.18125801
C      -1.03671563      1.02071887     -0.25985051
H       1.93493404     -1.26115469     -0.42159975
H       1.83994247      1.52266098      0.27671083
H      -0.03209067      0.45348656      1.58910324
H      -0.71175905     -1.84418541      0.91740915
H      -0.20940741     -1.52583998     -0.75059190
H      -2.46832696     -0.53486415     -1.07381541
H      -2.59942531     -0.22246768      0.66284700
H      -1.42505352      1.93243918      0.19124498
H      -0.72489209      1.23830910     -1.28182584
