15
b3lypvtz=-157252.94887526
C      -2.80620728      0.27107310      0.50705324
C      -1.78640843     -0.45525590     -0.38204887
C      -0.45295878      0.22126010     -0.40377890
C       0.70706778     -0.32625775     -0.03213155
C       1.97755276      0.39304266     -0.07074688
N       3.12657959     -0.04434351      0.25994527
H      -2.47358042      0.29351820      1.54556285
H      -3.77523007     -0.22818834      0.47131631
H      -2.94977832      1.30266552      0.18032722
H      -1.67055799     -1.48964918     -0.05154374
H      -2.17898361     -0.49400653     -1.40427324
H      -0.44759096      1.25427611     -0.74620300
H       0.73728646     -1.35522842      0.31829843
H       1.92300482      1.42523101     -0.42623821
H       3.06457046     -1.01551509      0.57600607
