11
b3lypvtz=-179020.63546933
C      -1.18205273     -0.28663562      0.34869862
C      -0.19412912     -0.48429700     -0.77954849
C      -0.33541904      0.86283632     -0.09560892
O       0.89322092      1.04703039      0.60350634
C       1.60658213     -0.08958861      0.36560572
N       1.11224935     -0.97278479     -0.39781026
H      -2.22729387     -0.23835491      0.07624065
H      -0.97053869     -0.75600612      1.30047580
H      -0.53572121     -0.72302785     -1.77568641
H      -0.73353657      1.77808719     -0.50499000
H       2.56663882     -0.13725901      0.85911695
