16
b3lypvtz=-147169.06634604
C       2.64635409      0.87216784     -0.00002214
C       2.06172079     -0.54864460      0.00002221
C       0.60134233     -0.57001877      0.00002429
C      -0.60130954     -0.57015271      0.00004488
C      -2.06169371     -0.54906368      0.00004511
C      -2.64660901      0.87163220      0.00004423
H       2.32094903      1.42480067      0.88153054
H       3.73674054      0.83631351     -0.00002116
H       2.32094975      1.42475144     -0.88160614
H       2.42974850     -1.09444784      0.87381852
H       2.42974860     -1.09449834     -0.87374246
H      -2.42961075     -1.09496640     -0.87373489
H      -2.42961249     -1.09496252      0.87382672
H      -2.32131095      1.42430062     -0.88152511
H      -3.73698846      0.83556660      0.00004302
H      -2.32131372      1.42430599      0.88161138
