14
b3lypvtz=-167312.48142018
C       2.80865051     -0.32890182      0.07224880
C       1.63761294      0.16334459     -0.33468038
N       0.39177217     -0.10540432      0.21558608
C      -0.66875502      0.87785005      0.15023904
C      -2.04507684      0.25834855      0.01641358
N      -2.31903986     -0.95471066     -0.20011244
H       3.71022486     -0.11159393     -0.47881228
H       2.89432846     -0.97134329      0.93977535
H       1.59120394      0.80707267     -1.20658639
H       0.42854719     -0.61042289      1.08949127
H      -0.49871475      1.51795330     -0.72065712
H      -0.67555180      1.55583319      1.01612745
H      -2.87264036      0.96437778      0.12235531
H      -1.45082344     -1.49172722     -0.28973229
