14
b3lypvtz=-146398.23559084
C      -1.73601883     -1.07232360      0.01220176
C      -0.80799093     -0.12491657      0.06593981
C      -0.72118097      1.30743810     -0.23957623
C       0.57924821      1.38073513      0.09341623
C       0.68473313     -0.09653610      0.47192292
C       1.64812719     -0.97195671     -0.31899327
H      -2.74234793     -0.85967165     -0.32611837
H      -1.51809473     -2.09186149      0.30327638
H      -1.44453999      2.02981955     -0.59281027
H       1.30326214      2.18401306      0.10024608
H       0.82495103     -0.25522917      1.54574093
H       1.50256309     -0.84094513     -1.39260345
H       2.68487850     -0.72191759     -0.08249621
H       1.50106511     -2.02757583     -0.08320831
