13
b3lypvtz=-179782.67517448
N       2.42196741      0.04885095      0.05133654
C       1.16608025      0.06962623     -0.03206667
C       0.15813987      1.08990387      0.46469721
C      -0.93343692      0.00353737      0.33087724
O      -2.09727279      0.46814625     -0.31974370
C       0.05875842     -0.87809388     -0.49007271
H       2.80239067     -0.81422412     -0.34114062
H       0.33520456      1.53488990      1.44200576
H      -0.00916209      1.88261059     -0.26814144
H      -1.17376962     -0.45361409      1.29481692
H      -2.74925994     -0.23910137     -0.34144829
H       0.15941442     -1.93246073     -0.23120832
H      -0.13895423     -0.78017098     -1.56001191
