16
b3lypvtz=-170478.84627115
C       2.86424936     -0.46249191     -0.10850402
C       1.66811018     -0.13618491      0.36620803
O       0.81519615      0.69325464     -0.28770812
C      -0.53096285      0.72766075      0.18900250
C      -1.37427478     -0.41904622     -0.35322799
C      -2.82993427     -0.32817890      0.10445689
H       3.51943546     -1.08856796      0.47734880
H       3.20915113     -0.10361736     -1.06797207
H       1.31525027     -0.49573181      1.33012365
H      -0.93178246      1.68633155     -0.14235992
H      -0.53315589      0.72582207      1.28553265
H      -0.93862250     -1.36837570     -0.03102920
H      -1.31780502     -0.40390211     -1.44404211
H      -3.41877134     -1.15387020     -0.29578890
H      -3.29436898      0.60173461     -0.23089066
H      -2.90909546     -0.36360054      1.19328649
