9
b3lypvtz=-201585.80531714
C       0.04352975      1.10342780     -0.31338413
C      -0.69095434     -0.01098029     -0.09607455
O       0.13224714     -1.01303291      0.31263698
C       1.37865190     -0.42877933      0.32256774
N       1.37546504      0.80185385     -0.03451926
O      -1.99808967     -0.27596881     -0.20732333
H      -0.27935972      2.07400890     -0.64111257
H       2.19960552     -1.05556644      0.62226304
H      -2.16109562     -1.19496278      0.03494608
