17
b3lypvtz=-158021.45328968
C      -1.45514038      0.00046325      0.22997439
C      -0.71466944     -1.26248186     -0.22415716
C       0.75080476     -1.21529168      0.20668537
N       1.37819412     -0.00043760     -0.31076339
C       0.75157883      1.21481929      0.20667774
C      -0.71386783      1.26293940     -0.22415770
H      -2.47923520      0.00078932     -0.14983481
H      -1.52772073      0.00048456      1.32323470
H      -1.19263927     -2.15564119      0.18531784
H      -0.75570017     -1.34015413     -1.31405184
H       1.29056366     -2.07910908     -0.18577830
H       0.79913962     -1.27281782      1.30910619
H       2.36855321     -0.00075248     -0.10435601
H       1.29189642      2.07829328     -0.18578002
H       0.79994586      1.27231013      1.30909659
H      -0.75485983      1.34064103     -1.31405150
H      -1.19126963      2.15639857      0.18532591
