11
b3lypvtz=-204945.93177163
C      -1.97350170     -0.95007450     -0.13336594
C      -0.95715988      0.13822698      0.07933815
N      -1.15934536      1.39186943      0.09959526
N       0.33686939     -0.36984093      0.34251111
C       1.30505261      0.16931925     -0.22669243
F       2.54857334     -0.23401238      0.03382555
H      -2.96074086     -0.53656314     -0.33003585
H      -2.01654375     -1.58946212      0.74973049
H      -1.67815146     -1.58660434     -0.96982973
H      -2.14252820      1.59975873     -0.06443430
H       1.28438488      0.97671302     -0.95458931
