14
b3lypvtz=-167325.96933471
C      -2.76597944     -0.51644255     -0.00324309
C      -1.58810583      0.40097315      0.01684538
N      -0.38875163     -0.02379327     -0.02315143
C       0.67369003      0.86961833     -0.01431468
C       1.94107473      0.41175206     -0.00744215
N       2.29980165     -0.91416190      0.07602627
H      -3.41150390     -0.30419153     -0.86122966
H      -2.43911928     -1.55351716     -0.05277978
H      -3.38223866     -0.37886463      0.89065264
H      -1.80267123      1.47752543      0.06991788
H       0.48603306      1.94109924     -0.00468792
H       2.76288398      1.11597291     -0.01445746
H       1.54301079     -1.56028633     -0.09241523
H       3.17445072     -1.17631275     -0.34510378
