13
b3lypvtz=-156465.82954917
N       2.10184588     -0.96907938     -0.32243768
C       1.00114610     -0.37581802     -0.16373829
C       0.53239606      0.95841593      0.45361412
C      -0.83710994      0.69742362     -0.19030499
C      -1.40191616     -0.57522572      0.32798208
C      -0.33767106     -0.65556101     -0.75014091
H       2.85331460     -0.48840662      0.17378036
H       1.07369174      1.79614320      0.01249297
H       0.55056382      1.05027994      1.54147438
H      -1.43187526      1.43528582     -0.70679467
H      -2.39525310     -0.83284042     -0.01495886
H      -1.17961578     -0.90336841      1.33697718
H      -0.52951690     -1.13704892     -1.69774569
