15
b3lypvtz=-157255.50761416
C      -2.24006265      0.00947934      0.05095471
C      -0.74987464      0.05036038      0.03025256
C       0.04688323      1.12100993     -0.00797577
N       1.40958200      0.80847497     -0.17909688
C       1.53396619     -0.62902765      0.14713501
C       0.11942904     -1.18468643     -0.11673524
H      -2.64417252     -0.44909368     -0.85881952
H      -2.61567004     -0.58448846      0.89036421
H      -2.66601285      1.01027284      0.13386203
H      -0.25366094      2.15963725      0.00809075
H       2.04790665      1.40528397      0.32778652
H       2.30515985     -1.10317157     -0.45891415
H       1.79426035     -0.76532747      1.20387931
H      -0.14318841     -1.99023179      0.57236292
H       0.03504175     -1.59400363     -1.13159746
