10
b3lypvtz=-189088.47412498
C       1.43616413     -0.04399225     -0.10861845
C      -0.04343398     -0.15203334      0.00609191
C      -1.01964224      0.78650736      0.06315058
O      -2.20778803      0.19526756      0.16442180
N      -1.93341581     -1.22463507      0.16988371
N      -0.69852774     -1.36791645      0.07878605
H       1.92868783     -0.51228597      0.74480306
H       1.74402912      0.99979435     -0.15033264
H       1.79494723     -0.54273969     -1.01009858
H      -1.00102053      1.86203349      0.04191254
