12
b3lypvtz=-189857.43006385
C      -1.66362990      0.26538546      0.28072636
C      -0.33368900     -0.22898221     -0.20502573
N       0.73640129     -0.05422085      0.45738446
C       1.92602230     -0.57457791     -0.09583514
N       3.05716769     -0.50215525      0.46060844
O      -2.41098650      0.87406408     -0.76531295
H      -1.51736649      0.92729311      1.13784183
H      -2.25953839     -0.58947568      0.61231933
H      -0.34811330     -0.74353501     -1.17531003
H       1.84306802     -1.06609607     -1.07133329
H       2.96440543     -0.01866416      1.35715794
H      -1.99374114      1.71096449     -0.99322124
