13
b3lypvtz=-179817.64421296
C      -1.06084855      1.46208183     -0.27220012
C      -0.69605224      0.20788170     -0.00897845
C      -1.67221784     -0.89978030      0.25816588
C       0.74783589     -0.21885590     -0.04862228
N       1.67451385      0.73239462      0.27643045
O       1.06699541     -1.34920550     -0.37460789
H      -0.34194467      2.23172346     -0.51931992
H      -2.10413668      1.75087287     -0.28578568
H      -1.52254774     -1.70915931     -0.45678502
H      -1.51307082     -1.33019264      1.24973957
H      -2.69893998     -0.54311608      0.19262267
H       2.63364091      0.43247525      0.32826654
H       1.40862944      1.55685099      0.78351123
