10
b3lypvtz=-243306.47153346
N      -2.63386203     -0.06653981     -0.10346424
N      -1.39977720     -0.00061221      0.44278409
C      -0.37898650     -0.00384446     -0.31622666
C       0.96906252     -0.00035818      0.31076547
F       1.69326930     -1.08864307     -0.10691648
F       1.67858003      1.10427797     -0.09232309
H      -2.73100464      0.25312335     -1.06224808
H      -3.33981368      0.28783320      0.52041349
H      -0.42604707     -0.01403899     -1.40781423
H       0.91851428     -0.00755479      1.39889975
