7
b3lypvtz=-226748.0805020231
C       1.69740086     -0.24172475     -0.02972604
N       0.59879195     -0.74624067      0.08957798
C      -0.66019900     -0.18701064      0.05411296
N      -0.92568390      1.02221428     -0.11862004
F      -1.57821894     -1.15107043      0.23600420
O       2.79531354      0.11074563     -0.12599872
H      -1.92740452      1.19308657     -0.10535032
