14
b3lypvtz=-190602.71869224
C       0.29766166      1.52342706      0.06501140
C       0.09315041      0.04399051      0.19187257
C      -1.27980492     -0.49022226      0.51201279
N      -2.23922878     -0.09768595     -0.52724732
N       1.00559692     -0.83676479      0.05922637
O       2.26488522     -0.25805890     -0.20741325
H       0.95097047      1.75392984     -0.77542865
H      -0.65929768      2.02215788     -0.06926068
H       0.78523046      1.91350608      0.96265710
H      -1.19734985     -1.56952630      0.67440242
H      -1.61337079     -0.03880783      1.45172146
H      -2.07624372     -0.63311240     -1.37197794
H      -3.18619314     -0.29445174     -0.22839299
H       2.82783173     -1.03248119     -0.30057830
