9
b3lypvtz=-224893.24382243
N       0.81255666     -0.05778686      0.04433099
C       0.34462909     -0.51652376      1.11715674
O       0.96861205     -0.98571132      2.21422013
O      -1.02267123     -0.55928766      1.21728075
C      -1.76874276     -1.01348155      2.27920131
O      -1.39693124     -1.45638168      3.31563256
H       1.82771201     -0.05216167      0.03118552
H       1.92109658     -0.92632942      2.07464517
H      -2.81506116     -0.88513609      1.97804683
