12
b3lypvtz=-187456.18540595
C       2.53498561     -0.17965612     -0.06256282
N       1.38749259      0.33697682      0.11602212
N       0.30105862     -0.46206988      0.07884801
C      -0.97449424      0.12390493     -0.00198548
N      -1.24819468      1.36025935     -0.03406668
N      -1.96240673     -0.85668468     -0.07940414
H       2.69233830     -1.24208721     -0.26289786
H       3.39590471      0.47182023     -0.00817945
H       0.40040800     -1.39846984     -0.30022211
H      -0.39508971      1.91105536     -0.07302942
H      -2.88110944     -0.44036620     -0.04548441
H      -1.86396703     -1.60739675      0.58949423
