13
b3lypvtz=-179771.34719776
C      -1.98706666     -0.33089641     -0.85342965
N      -0.82260949      0.10777689     -0.63202304
C      -0.13036209     -0.28484048      0.53912185
C       0.68564283      0.80265157      1.23604318
C       1.38052834     -0.23060145      0.41328611
O       1.94673198      0.09672006     -0.81679265
H      -2.50199269     -0.03728324     -1.76379147
H      -2.51665116     -1.00100220     -0.16804086
H      -0.58233999     -1.05798355      1.15650718
H       0.60866258      1.79575936      0.81625561
H       0.74989862      0.75525330      2.31455514
H       1.94826301     -0.99761823      0.92306923
H       1.22129473      0.38206437     -1.38986063
