15
b3lypvtz=-180560.37408362227
C       0.17042425     -0.38104815     -0.59554252
C      -1.23646872     -0.82092820     -0.19375881
N      -2.03695801      0.32650363      0.25008723
C       0.95432679      0.23121723      0.55885720
C       2.27866446      0.83292095      0.18306159
O       2.71984493      0.90391478     -0.93662084
H       0.10728153      0.34394578     -1.41142492
H       0.71395533     -1.23670330     -1.00188077
H      -1.17513463     -1.52358534      0.64199296
H      -1.68737030     -1.36935783     -1.03185561
H       0.36344399      1.01431335      1.04806943
H      -2.92086413      0.02025117      0.63760260
H      -2.25748669      0.92583037     -0.53760299
H       1.14616430     -0.50542623      1.34985839
H       2.86017690      1.23815180      1.03915703
