8
b3lypvtz=-234929.21134093
O       2.34033848     -0.62203203     -0.10600179
N       0.98841240     -0.61171163     -0.32132401
N       0.46717794      0.23614968      0.39943199
C      -0.96509641      0.26716749      0.19406283
O      -1.45088510      1.21129739      1.01267917
O      -1.61942438     -0.40332824     -0.55112891
H       2.64840843     -1.31090462     -0.71077278
H      -2.40903136      1.23336195      0.87655350
