16
b3lypvtz=-168068.11912307
N      -2.08026610     -0.15978970      0.35100291
C      -0.96096735     -0.60225302     -0.49056469
C       0.31509364      0.11327099     -0.09664779
N       0.16245374      1.55607443     -0.14291586
C       1.22340156     -0.53330965      0.92048925
C       1.61619551     -0.47819088     -0.54099911
H      -2.88753543     -0.75237338      0.20022137
H      -2.35491785      0.77430912      0.06795298
H      -0.82967099     -1.67640972     -0.34747257
H      -1.13311283     -0.43003157     -1.56224981
H       1.04719050      2.01813357     -0.30477971
H      -0.20295454      1.89829342      0.73829141
H       1.75162734      0.11802574      1.60389240
H       0.93756614     -1.48858222      1.33980591
H       2.41120639      0.19860902     -0.82741990
H       1.59459228     -1.39562216     -1.11452578
