12
b3lypvtz=-189869.35387964
C       0.46109203     -0.35633751      0.07932001
C      -0.76487530      0.20531894      0.10262075
N      -1.94310538     -0.41607864     -0.28946394
O      -0.95261900      1.46932408      0.56691418
C       1.63458443      0.23649907      0.68742115
N       2.82937982     -0.21811686      0.68052643
H       0.57129202     -1.31083594     -0.42140297
H      -1.82242926     -1.35750406     -0.63073187
H      -2.51844599      0.13659598     -0.91209959
H      -1.84024929      1.53082464      0.94150528
H       1.47044729      1.17823981      1.21124886
H       2.87492862     -1.09792952      0.16012875
