9
b3lypvtz=-227509.29434195
N      -1.99338801     -0.88406520     -0.00007938
C      -1.01517873     -0.10803799     -0.00006460
F      -1.09950897      1.24250849      0.00008594
N       0.29740678     -0.52358866      0.00000745
C       1.43644570      0.26398779      0.00008197
O       2.54508912     -0.20664152      0.00008547
H      -2.87983853     -0.39089778     -0.00006482
H       0.43628405     -1.52456094      0.00002264
H       1.22327759      1.33957080     -0.00017766
