12
b3lypvtz=-192249.54185473
O      -2.26187739      0.37555661     -0.13717940
C      -1.40399272     -0.46137277     -0.03237986
C      -0.04579835     -0.20656196      0.57986243
C       0.68753657      1.08487177      0.17708367
C       1.73606607      0.13177830     -0.42414574
O       0.97002721     -1.03773034     -0.02550526
H      -1.55014330     -1.50299381     -0.38569002
H      -0.12303874     -0.38324147      1.66058438
H       0.14068820      1.70370460     -0.52982053
H       1.03129327      1.69910963      1.00457327
H       2.71526795      0.14607830      0.05755469
H       1.86304125      0.17565214     -1.50727364
