9
b3lypvtz=-229890.68407926
C      -0.44467151     -0.57641627      0.15798187
C       0.86215542     -0.29492235      0.10902857
O       1.40820732      0.87270718     -0.22000579
F       1.78289335     -1.21886028      0.40442628
C      -1.47129590      0.40575242     -0.15750054
O      -2.66062270      0.17034168     -0.11794376
H      -0.74423797     -1.57318540      0.44343507
H       2.37043728      0.80588206     -0.17529642
H      -1.10286529      1.40870097     -0.44412527
