12
b3lypvtz=-194863.78736207
N      -3.10109355      0.08309959     -0.17909299
C      -1.94734780     -0.40295571      0.04484066
C      -0.66934225      0.30844897      0.01846989
C       0.49870354     -0.27891874      0.28186160
C       1.80859571      0.43008122      0.30713687
F       2.73669639     -0.25250715     -0.48353646
H      -3.04053423      1.08266519     -0.38882065
H      -1.89084968     -1.46771939      0.28170185
H      -0.70463021      1.36659602     -0.22860000
H       0.53161754     -1.33842193      0.51754634
H       2.21734032      0.46116356      1.32146683
H       1.72350922      1.44926538     -0.07345093
