14
b3lypvtz=-167335.46438137
C      -2.17371724     -0.02212443      0.02737647
C      -0.68229068     -0.09126232     -0.00841505
N      -0.01000227     -1.17435138      0.05909106
C       1.40927609     -0.80014233     -0.06186086
C       1.45221526      0.73750164      0.11414795
N       0.05497432      1.08076805     -0.18411314
H      -2.51764041      0.60126599      0.85672379
H      -2.58123398     -1.02227686      0.14356177
H      -2.55726615      0.41924612     -0.89468079
H       1.77092780     -1.09549782     -1.05162197
H       2.01258644     -1.32865412      0.67597104
H       2.14140480      1.22960344     -0.57114809
H       1.72288527      1.01738296      1.13827501
H      -0.31908625      1.92974807      0.21141280
