9
b3lypvtz=-201571.25919573
N       2.16200485     -0.70223932      0.00001435
C       0.89926671     -0.78172900     -0.00001476
C       0.01385855      0.44198289      0.00000059
O       0.45721623      1.56690260      0.00000498
C      -1.50303579      0.24351395      0.00000819
O      -2.01991765     -0.84125276      0.00000982
H       2.44436595      0.28499789      0.00001788
H       0.41006086     -1.75165324      0.00000147
H      -2.07270272      1.19124798      0.00003148
