10
b3lypvtz=-238139.53586609
C      -1.09131118     -0.06565482     -0.01229156
O      -1.85806472      0.96562053      0.48597555
O       0.31276114      0.27820338      0.17618281
C       1.19544887     -0.57532307     -0.38221505
O       0.92311588     -1.55838435     -1.00841513
O       2.45493308     -0.17367376     -0.14248835
H      -1.30768033     -0.95769592      0.57068945
H      -1.24384870     -0.25939146     -1.07458719
H      -1.81850506      1.71592245     -0.11633335
H       2.43315101      0.63037701      0.39248767
