12
b3lypvtz=-246489.31458242
O       1.46318484      0.64121969     -0.85901880
C       1.07367981     -0.35335716      0.08748816
C      -0.40279919     -0.64021501     -0.12467759
C      -1.28008257      0.55460278      0.16382872
F      -1.19776055      0.89155763      1.49337308
F      -2.58991005      0.23990511     -0.08628095
H       2.36828882      0.90855209     -0.67783238
H       1.64532176     -1.27622220     -0.05745037
H       1.24175162     -0.00732766      1.11216555
H      -0.72352617     -1.45719578      0.52471212
H      -0.57144179     -0.94248320     -1.15960353
H      -1.02680653      1.44086371     -0.41670401
