13
b3lypvtz=-179788.59509886
C      -0.73959917      1.16281298      0.08176176
N       0.49946185      1.39819320     -0.01333955
C       1.39098069      0.24396595     -0.15414484
C       0.76006814     -1.06014147      0.30363717
O      -0.51221884     -1.23304232     -0.31509528
C      -1.39947763     -0.18969632      0.02772892
H      -1.41285642      2.01228795      0.21528509
H       2.29935483      0.45084380      0.41704522
H       1.68886627      0.17697418     -1.20439877
H       1.36279127     -1.92180009      0.01851557
H       0.64944031     -1.06481016      1.39677711
H      -1.88961364     -0.38617567      0.99585126
H      -2.18786068     -0.17722404     -0.72900168
