12
b3lypvtz=-168960.67538966
C      -2.19928250     -0.66778465      0.00001148
C      -0.87256690     -0.75307915     -0.00000059
C      -0.02118345      0.47173832     -0.00001195
O      -0.51233041      1.58806750      0.00000672
C       1.45837731      0.33842286      0.00000763
C       2.15854199     -0.79390064     -0.00000123
H      -2.82565289     -1.54948233      0.00002133
H      -2.68252909      0.30079112      0.00000693
H      -0.38971217     -1.72066261      0.00000159
H       1.96578579      1.29617659      0.00003304
H       3.24057959     -0.77796413      0.00001767
H       1.69590374     -1.77113789     -0.00003062
