12
b3lypvtz=-213169.0771434
C       0.47940286      0.04453086      0.02590636
C      -0.84920984     -0.07896383     -0.04562250
O      -1.47555551     -1.31013545      0.00931457
O      -1.68163508      1.01664198     -0.17923211
N       1.16133781      1.23695211     -0.27319100
N       1.33317986     -1.00512584      0.40750196
H      -2.05947801     -1.32604292      0.77883180
H      -2.17305424      0.93265530     -1.00679959
H       0.51732321      2.00180918     -0.41692494
H       1.81994212      1.47526913      0.45891019
H       0.82932834     -1.87683097      0.48935222
H       2.09841847     -1.11075955     -0.24804697
