12
b3lypvtz=-194856.27787462
C      -2.89295179     -0.30687941     -0.00000966
C      -1.55962364     -0.37454327      0.00001496
N      -0.70065473      0.70582819      0.00001098
C       0.68601499      0.66164639      0.00000358
C       1.47155903     -0.41201085     -0.00001005
F       2.82018807     -0.24614251     -0.00000896
H      -3.48130089     -1.21045229      0.00000256
H      -3.42314834      0.63721612     -0.00004108
H      -1.06461200     -1.33609400      0.00004499
H      -1.11588003      1.62074876     -0.00001066
H       1.16177873      1.63299828      0.00001198
H       1.18133958     -1.45052841     -0.00002665
