11
b3lypvtz=-176639.2242712
N       0.85016267     -0.07149970     -0.26115361
C       0.31922241     -1.14351769      0.47389137
C       0.68105702     -2.47510822      0.43037169
N      -0.18322115     -3.12773749      1.25977186
H      -0.20602327     -4.10936494      1.46814250
N      -1.07365976     -2.31692492      1.83503144
C      -0.77979065     -1.10845352      1.36300834
H       0.73614036      0.81555429      0.20699510
H       1.82138159     -0.19634812     -0.50602437
H       1.45472757     -2.98966322     -0.11254987
H      -1.36119681     -0.25333647      1.66921556
