15
b3lypvtz=-185551.45048449
C       1.98633027     -0.91085206      0.22007244
C       1.29862288      0.29527348     -0.37958175
C       0.51891191      1.25852493      0.47028641
C      -0.20273133      0.41002641     -0.54657977
C      -1.13985136     -0.66971048     -0.10836294
F      -2.37949393     -0.11805510      0.24537702
H       2.98612023     -0.64100536      0.56678682
H       2.09681607     -1.71482545     -0.51120055
H       1.44634001     -1.31131380      1.07798861
H       1.85879434      0.74672583     -1.19007776
H       0.60681396      2.31974090      0.28405511
H       0.37920739      1.00062948      1.51262775
H      -0.53207048      0.92112358     -1.44338425
H      -0.76983853     -1.20777215      0.76492894
H      -1.33164343     -1.38639721     -0.91047908
