11
b3lypvtz=-204909.27126882
C       2.72823732     -0.36571902     -0.00002461
N       1.45506863     -0.43448968      0.00003806
N       0.74104330      0.69881835      0.00003409
C      -0.64735506      0.67873283      0.00000456
C      -1.41697444     -0.40379478     -0.00000514
F      -2.76596494     -0.26059029     -0.00001157
H       3.28434882     -1.29187301     -0.00000638
H       3.27675200      0.57933694     -0.00008779
H       1.21597907      1.59233475     -0.00007041
H      -1.10410020      1.65850728      0.00000207
H      -1.08722051     -1.42943836     -0.00000387
