16
b3lypvtz=-168096.7417127
C       2.65233096     -0.33344065     -0.10001411
C       1.37515229      0.45796165      0.14167820
N       0.20546723     -0.39406164     -0.00671676
C      -1.06722612      0.11887597     -0.01102540
C      -2.15374311     -0.93523347     -0.00109815
N      -1.24760502      1.38542097     -0.04524844
H       2.75514514     -1.15466006      0.61443671
H       3.52513315      0.30978461      0.01436888
H       2.66842224     -0.75507504     -1.10621046
H       1.28154948      1.27458061     -0.57335778
H       1.39342585      0.92325343      1.13410051
H       0.30841544     -1.35489906      0.27297153
H      -2.12312230     -1.51347736      0.92578609
H      -3.13557337     -0.47471203     -0.08337126
H      -2.02402526     -1.63357554     -0.83023499
H      -2.23786659      1.60161361     -0.09657458
