13
b3lypvtz=-156472.13969031
C       1.65153205     -1.64138676      0.00096317
C       0.96137422     -0.65209998      0.00082116
C       0.14221614      0.50695663      0.00819912
C       0.81490865      1.85802361     -0.00098314
C      -1.20269782      0.37843571      0.01200825
N      -1.90507839     -0.80219062     -0.06724586
H       2.27117977     -2.50252281     -0.00537788
H       1.47899392      1.97720936      0.85827872
H       0.07444724      2.65809936      0.02934367
H       1.42327767      1.99566835     -0.89827104
H      -1.81999461      1.26853808      0.02655209
H      -1.37680242     -1.64513084      0.10188800
H      -2.82850842     -0.80860908      0.33089573
