15
b3lypvtz=-178163.12947232
C      -2.44842511     -0.04569300      0.00184120
N      -1.14390757     -0.67457633     -0.06468717
C       0.01077825      0.10670969     -0.00157574
N       0.08780522      1.38313656     -0.01390119
N       1.15732035     -0.67189975      0.07157995
C       2.45393440     -0.01749650     -0.00213826
H      -2.57801796      0.63692057     -0.83875818
H      -2.61778529      0.51588415      0.92876757
H      -3.21269719     -0.81695328     -0.07782255
H      -1.06993571     -1.53557947      0.45510400
H      -0.82658963      1.81688649      0.04564321
H       1.09173464     -1.53094717     -0.45189901
H       2.61460964      0.50646471     -0.94915081
H       3.22984410     -0.77063924      0.13109516
H       2.53424687      0.71717657      0.79562882
