15
b3lypvtz=-180540.84034121
C      -1.38797584      1.46253714     -0.16595502
C      -0.21541437      0.73811911      0.44958972
C      -0.10830820     -0.78154099      0.44463137
N      -1.12868430     -1.54702778     -0.22456658
C       0.81110572      0.03978203     -0.39987809
O       2.16602960      0.04678488     -0.02868446
H      -1.78423591      0.91147997     -1.01706895
H      -2.19944039      1.58342393      0.55591849
H      -1.09840986      2.45983499     -0.50553337
H       0.19269994      1.19165926      1.34578623
H       0.36576058     -1.20109706      1.32923029
H      -0.75626325     -2.42537934     -0.56523813
H      -1.89290491     -1.76448945      0.40359938
H       0.62417062      0.01102888     -1.46999383
H       2.52002858      0.92666845     -0.19294504
