14
b3lypvtz=-167293.7548934
C      -2.88128812     -0.30795759      0.28187854
C      -1.80915448      0.01637795     -0.42867086
C      -0.55633875      0.60428124      0.14696242
N       0.59788915     -0.21648497     -0.20098176
N       1.80352307      0.38591916     -0.04865832
C       2.84005194     -0.33191390      0.12512481
H      -3.77023880     -0.71303288     -0.18323227
H      -2.91159020     -0.16996927      1.35664494
H      -1.80070765     -0.14037141     -1.50287728
H      -0.66457590      0.73782453      1.23129527
H      -0.36684618      1.59004072     -0.28320242
H       0.54403262     -1.17396890      0.14070608
H       3.79802538      0.16578951      0.18833352
H       2.80992891     -1.42221517      0.20028932
