11
b3lypvtz=-204944.14669543
N       2.44594449     -0.49177873     -0.08398275
C       1.66753385      0.63209649      0.01172486
C       0.31932147      0.64805218      0.03064776
N      -0.37122194     -0.55990698      0.03471401
C      -1.61747505     -0.64616938      0.01186479
F      -2.45883932      0.42429363     -0.03037885
H       1.96675450     -1.36532705      0.07101835
H       3.37986345     -0.44453310      0.28369337
H       2.20683296      1.57025925      0.02279757
H      -0.21343530      1.58917792      0.03597931
H      -2.17104711     -1.57511324      0.02260259
