14
b3lypvtz=-167300.14529301
C       2.26843574     -0.71559130     -0.04208581
N       1.11278692     -0.41112239      0.37099616
C       0.26736990      0.37565622     -0.44164334
C      -0.64174257      1.35829638      0.28422700
C      -1.24280850      0.13103835     -0.29684902
N      -1.80164746     -0.87818503      0.55946709
H       2.91175200     -1.33143884      0.58065594
H       2.66877249     -0.38861333     -1.00875212
H       0.64229085      0.66699719     -1.42230118
H      -0.52743367      1.39368050      1.35937123
H      -0.82788032      2.31452920     -0.18452900
H      -1.80601563      0.25860996     -1.21287542
H      -1.21124055     -1.00165730      1.37406652
H      -1.81263920     -1.77219959      0.08025197
