13
b3lypvtz=-179761.10446102
C      -2.70887209      0.50720181     -0.00000014
C      -1.67836524     -0.32566022      0.00000126
O      -0.38900874      0.13300609     -0.00000083
N       0.52841046     -0.93709323     -0.00000058
C       1.73623433     -0.53900269      0.00000008
C       2.27161139      0.85529761      0.00000109
H      -3.71178481      0.10974076      0.00000195
H      -2.57759986      1.57993074     -0.00000307
H      -1.75879896     -1.40420869      0.00000431
H       2.44317242     -1.36329723     -0.00000048
H       1.47866522      1.59580923      0.00002262
H       2.90524128      1.00862230      0.87700716
H       2.90520560      1.00863752     -0.87702838
