14
b3lypvtz=-167279.6654169099
C       2.92275110      0.43141192      0.29153985
C       1.59551738      0.48330290      0.41605118
N       0.66636932     -0.15115755     -0.40833971
C      -0.59435631     -0.52468093      0.09091892
N      -1.67219769     -0.01934092     -0.51497713
C      -2.98069244     -0.21637369     -0.38418113
H       3.55455068      1.00920838      0.94788677
H       3.40666823     -0.16708995     -0.47061254
H       1.13126235      1.07893505      1.19334198
H       1.09317331     -0.78304270     -1.07633801
H      -0.73202738     -1.24401631      0.88563244
H      -1.40646657      0.65354070     -1.22814584
H      -3.64298815      0.37233550     -0.99035038
H      -3.34156382     -0.92303239      0.34274570
