16
b3lypvtz=-193791.19152402
C       2.17219545     -0.81215090      0.12258530
C       1.37876066      0.45196834     -0.20057823
C      -0.06649512      0.40626499      0.27400135
O      -0.72798216      1.64553387      0.10421941
O      -0.71351668     -0.63172388     -0.42174205
C      -2.00002541     -0.95917833      0.08246424
H       2.20467762     -0.99139831      1.19963486
H       3.20141524     -0.72535085     -0.22755089
H       1.72342190     -1.68497742     -0.34959738
H       1.36884589      0.62262757     -1.28212239
H       1.84455706      1.32509076      0.25980722
H      -0.11891196      0.21988934      1.35404878
H      -0.65791885      1.89093775     -0.82615040
H      -1.93887100     -1.30301626      1.12150665
H      -2.67923770     -0.10547149      0.03270655
H      -2.38664495     -1.76661719     -0.53588303
