11
b3lypvtz=-199953.25800774
N      -2.63868461     -0.06568402      0.00000244
C      -1.42838766      0.30942253     -0.00000018
N      -0.29975816     -0.50538669     -0.00000605
C       1.02353200     -0.09474956      0.00000069
N       2.06455451     -0.81802245      0.00000466
O       1.12685867      1.25170144      0.00000192
H      -2.73541402     -1.08255674      0.00000092
H      -1.18953222      1.36682023      0.00000041
H      -0.44839022     -1.50206367     -0.00000303
H       1.86350064     -1.81208414      0.00000335
H       2.07543207      1.43839306      0.00000689
