16
b3lypvtz=-193786.70241537
O       2.28784797     -0.74220286      1.05975548
C       1.83481982     -0.57969936     -0.28254248
C       0.53986490      0.22119198     -0.38997482
C      -0.64024242     -0.42704623      0.33465679
C      -1.90911626      0.41764901      0.33157568
O      -2.45406256      0.62643999     -0.97095427
H       2.54425369      0.12016186      1.40093702
H       1.68003654     -1.59247126     -0.65896849
H       2.61398195     -0.11716727     -0.89942628
H       0.71310013      1.22907129      0.00911020
H       0.30998424      0.34353487     -1.45372069
H      -0.86255366     -1.39448570     -0.12488716
H      -0.35704803     -0.62586035      1.37144478
H      -2.69244654     -0.09205748      0.89338378
H      -1.72401165      1.37843861      0.82955808
H      -1.88440812      1.23440290     -1.45004763
