10
b3lypvtz=-212436.32142287
N       1.58333765     -1.05012357      0.35177641
C       0.70452730     -0.17612711      0.09968276
O       0.86206912      1.15283166     -0.14562631
N      -0.63227977     -0.53649483      0.04655249
C      -1.72129095      0.26966543     -0.21142166
O      -2.85195765     -0.15220873     -0.23397936
H       2.52793116     -0.67933515      0.36655953
H       1.79981711      1.36820775     -0.10105600
H      -0.81773568     -1.51392396      0.22031087
H      -1.45431831      1.31750850     -0.39269874
