10
b3lypvtz=-189124.10994247
C      -1.39433872     -0.35556042     -0.49845097
N      -0.19338039     -0.20567446      0.30699111
C       0.91438456      0.42534666     -0.14655936
O       1.06098566      0.92896291     -1.23923028
C       2.00346813      0.45467919      0.85407425
N       2.86978091      0.49390523      1.61006645
H      -1.65733174     -1.40882791     -0.60029668
H      -1.19348118      0.05970363     -1.48184680
H      -2.23191941      0.17985896     -0.04926684
H      -0.17816780     -0.57239379      1.24451912
