15
b3lypvtz=-157222.90985869162
C       2.81506487     -0.04357632      0.43999677
C       1.60695518      0.48588023     -0.25695506
N       0.39577309      0.01372650      0.01993511
C      -0.83159895      0.30809262     -0.45199159
C      -1.98036029     -0.36652123      0.03156307
C      -3.25969529     -0.17351964     -0.34964707
H       2.78810841      0.10819275      1.52666244
H       2.97721952     -1.11550464      0.26886605
H       3.70284896      0.46992320      0.07398934
H       1.67050312      1.26227629     -1.00275306
H       0.38411125     -0.71506877      0.72778378
H      -0.88715527      1.07666897     -1.20898991
H      -1.79258621     -1.12177949      0.79543890
H      -3.52566523      0.55797427     -1.10202207
H      -4.06352313     -0.74676472      0.08698010
