15
b3lypvtz=-180551.06523158
N       2.99440153      0.11068238     -0.08060527
C       1.65438558     -0.45403844     -0.26903666
C       0.60861618      0.37981777      0.47897760
C      -0.76898219     -0.21176148      0.42522032
C      -1.80743561      0.37062387     -0.16644042
O      -3.08103106     -0.11174359     -0.25509154
H       3.06016813      1.01657983     -0.53169137
H       3.69274608     -0.47826612     -0.51843166
H       1.66141472     -1.46783031      0.14013281
H       1.34959472     -0.54118812     -1.32136836
H       0.58937249      1.39101404      0.06024116
H       0.94445404      0.48052539      1.51546340
H      -0.90880355     -1.18230300      0.89765227
H      -1.73212325      1.33578390     -0.65236477
H      -3.12847079     -0.96816313      0.18518549
