12
b3lypvtz=-192224.22396217
C       1.55446473     -0.55209442      0.12810944
O       1.73372892      0.45525675     -0.87275081
C       0.54459418     -0.34102620     -0.91100742
C      -0.73902487      0.39330204     -0.68974906
C      -1.39924895      0.51037773      0.61198030
O      -1.87442193     -0.41748600     -0.36879606
H       2.22341430     -1.40331546      0.05300782
H       1.38558737     -0.17761409      1.13131279
H       0.51143519     -1.04830188     -1.73689526
H      -0.94011407      1.16352843     -1.43118350
H      -2.05110391      1.35692853      0.80218696
H      -0.94941096      0.06044458      1.48968480
