11
b3lypvtz=-199955.49822284
N       1.10423426     -0.82551499     -1.05561189
C       0.54409496     -0.04147781     -0.21970978
N       1.08783160      1.01946123      0.44805688
C      -0.90298655     -0.33004378      0.11350051
N      -1.58451414     -1.29087880     -0.32647227
O      -1.43816428      0.58317822      0.96645752
H       2.07587513     -0.57800366     -1.23064076
H       0.48365259      1.63342516      0.96457851
H       1.98915873      1.36726188      0.17324554
H      -1.00374963     -1.85207642     -0.94794226
H      -2.35553268      0.31456896      1.11453800
