12
b3lypvtz=-192276.07089078
C       2.27447042     -0.42171230      0.00008480
C       0.78987843     -0.75901860     -0.00007279
C      -0.10654533      0.44918338     -0.00009783
O       0.27349212      1.59751638      0.00013197
C      -1.62425426      0.20937210      0.00000621
O      -2.12805998     -0.88151565      0.00001206
H       2.54397584      0.16507231     -0.87770229
H       2.87220309     -1.33292053      0.00017448
H       2.54376609      0.16510976      0.87791116
H       0.50954980     -1.37170602      0.86325064
H       0.50971982     -1.37174812     -0.86341757
H      -2.20925102      1.14925031      0.00019916
