10
b3lypvtz=-212447.11074546
N       2.05278756     -0.28911969      0.00009300
C       0.74322348     -0.01065568     -0.00016431
O       0.44365511      1.26956264     -0.00020539
N      -0.13039350     -1.00605810     -0.00009487
C      -1.43852747     -0.65942877      0.00005002
O      -1.91238576      0.48965775      0.00012575
H       2.72813630      0.45329679     -0.00211159
H       2.34142304     -1.24998286     -0.00178093
H      -0.57632564      1.28385689     -0.00006000
H      -2.12265912     -1.51586296      0.00008032
