14
b3lypvtz=-167314.53030136
C      -2.42740199     -0.17889867     -0.38785641
N      -1.39416886      0.41008481      0.02667337
C      -0.34617258     -0.38594597      0.65625405
C       1.00330666     -0.07141793      0.05171614
C       1.84678837     -1.04048079     -0.31924704
N       1.28103812      1.28961312      0.01759730
H      -2.58041871     -1.26159033     -0.30231186
H      -3.22054257      0.39882071     -0.85748983
H      -0.54061286     -1.46201125      0.60011612
H      -0.32337899     -0.09257400      1.71154558
H       1.58055970     -2.07945076     -0.19988561
H       2.82713211     -0.81910595     -0.72101581
H       2.05931742      1.55481634     -0.56542869
H       0.46279618      1.86013065     -0.14103532
