11
b3lypvtz=-176652.12368225
N       1.10465845      0.27070457      0.14031713
C       0.43320821     -0.37777194      1.19417502
C       0.35989325     -1.67098073      1.64233598
N      -0.40105206     -1.74449162      2.78736220
C      -0.79348894     -0.51959305      3.02849804
N      -0.31222326      0.35247644      2.09449510
H      -0.40193418      1.35404866      2.08581893
H       0.51741204      0.41055478     -0.67370492
H       1.92552890     -0.24431419     -0.14493928
H       0.81278719     -2.54600208      1.20599082
H      -1.42628960     -0.20513083      3.84215098
