12
b3lypvtz=-192159.75207004
C       0.64555711      1.47035012     -0.45236410
O      -0.56254329      1.50879765      0.42735181
C      -0.72057272      0.06429465      0.05258063
C      -0.65310729     -1.44835007      0.44976415
O       0.55499341     -1.48679759     -0.42995157
C       0.71302309     -0.04229464     -0.05518029
H       1.42436794      2.13357630     -0.08210824
H       0.37551511      1.68288413     -1.48693665
H      -1.20702737      0.07790482     -0.92523022
H      -1.43191819     -2.11157566      0.07950741
H      -0.38306558     -1.66088498      1.48433656
H       1.19947778     -0.05590472      0.92263051
