13
b3lypvtz=-179767.01063665972
C      -2.31713903     -0.28705499      0.08273293
C      -1.02819689     -0.12292108      0.44022540
C       0.07943877      0.00191048     -0.44941062
N       1.31530499      0.16139815      0.04049346
C       2.49899165      0.30031914     -0.54063367
O      -0.63667403     -0.05642494      1.76646031
H      -2.59661123     -0.33576318     -0.95787647
H      -3.10168007     -0.37395123      0.82137625
H      -0.05226699     -0.02880681     -1.51796960
H       1.32190966      0.17561071      1.05663528
H       2.56768283      0.29485326     -1.61503316
H       3.36314563      0.41541839      0.08698430
H      -1.41390528     -0.14458792      2.32530518
