14
b3lypvtz=-169726.74113912
O      -0.57841952     -1.81352929      0.69332095
C      -0.11765380     -0.96688412     -0.35934780
C       1.22749211     -0.29151648      0.00107064
C       0.80658761      1.06904029      0.49941387
C      -0.45306835      1.34479149      0.17006299
C      -1.08642461      0.21508651     -0.60407309
H      -0.66932901     -1.27625680      1.48854367
H      -0.03498098     -1.62257529     -1.22386734
H       1.87657897     -0.19940925     -0.87700521
H       1.77236406     -0.88890746      0.73479543
H       1.47134501      1.73750003      1.03004941
H      -0.96575613      2.27095047      0.39300719
H      -2.09583448     -0.04198179     -0.27678328
H      -1.15270087      0.46389169     -1.66918742
