12
b3lypvtz=-166544.1905284
C      -2.04845108     -0.72427724     -0.01188078
N      -0.82238549     -0.10132194     -0.49479292
C      -0.54473266      1.24729765     -0.05172364
C       0.23064998      0.09180015      0.50100652
C       1.58824820     -0.17604554      0.09783472
N       2.68145758     -0.37777248     -0.20032761
H      -2.86473067     -0.45148572     -0.68070335
H      -2.31658295     -0.41869917      1.00947800
H      -1.93226839     -1.80746287     -0.03474643
H      -0.08080268      1.90154463     -0.77794601
H      -1.24042811      1.72246557      0.63361364
H       0.01257028     -0.18690605      1.52742188
