14
b3lypvtz=-167308.84950829
C       1.82885394     -1.08319559      0.22013222
N       0.73932294     -0.75600710     -0.33052826
C       0.15699916      0.49089249     -0.03103082
C       0.83453259      1.64629838     -0.15715149
N      -1.17174950      0.40314327      0.36290047
C      -2.02972964     -0.67971473     -0.10250692
H       2.30228224     -2.02069981     -0.06243070
H       2.32786131     -0.46369993      0.97073465
H       0.34216678      2.60038792     -0.03129881
H       1.87496080      1.64671801     -0.43757293
H      -1.62731919      1.30204539      0.37274922
H      -2.17159955     -0.68766260     -1.18974309
H      -3.00264867     -0.57293742      0.37589377
H      -1.61285520     -1.64090227      0.18703469
