16
b3lypvtz=-168087.56070317
C      -1.70969772      0.89755911     -0.07142976
C      -0.71912171     -0.24738528     -0.01658882
N      -1.05288877     -1.47638469      0.13460542
N       0.61373158      0.07850577     -0.17579339
C       1.59003340     -0.99382156     -0.06262869
C       1.12068685      1.40468777      0.12371627
H      -2.72107358      0.49823130     -0.09108325
H      -1.62109166      1.54845902      0.80058042
H      -1.56644568      1.51438674     -0.96013886
H      -2.06286132     -1.56789874      0.16076624
H       1.80909994     -1.24525640      0.98235213
H       2.51490625     -0.68172921     -0.54859267
H       1.20250618     -1.88716772     -0.54194148
H       0.42653234      2.17677839     -0.19547411
H       2.05616753      1.55915836     -0.41508881
H       1.32523436      1.54762015      1.19415337
