11
b3lypvtz=-179049.32249164
O      -2.08261753     -0.01488402     -0.00723826
C      -0.87063925      0.05395181      0.01041782
C       0.00644820      1.21373802      0.01278787
C       1.28910638      0.77294701      0.00280522
N       1.40423618     -0.58601342     -0.08529685
C       0.07285088     -1.17325093      0.02446727
H      -0.31987732      2.23921494      0.00675933
H       2.18782236      1.37298614      0.03320752
H       2.21281214     -1.05518627      0.28447764
H      -0.05423909     -1.72505762      0.95828164
H      -0.15416995     -1.83871166     -0.80874719
