17
b3lypvtz=-157940.67629179536
C      -2.12490418     -0.80733591     -0.31622322
C      -0.81261541     -0.69262280      0.43725224
N       0.14607463      0.24741951     -0.24224791
C      -0.37884701      1.69146985     -0.23082916
C       1.48935052      0.14231942      0.29744671
C       2.55168759     -0.17209342     -0.43532408
H      -1.97936581     -1.27242821     -1.29433575
H      -2.81346927     -1.43531373      0.25011305
H      -2.55737779      0.17979752     -0.45911725
H      -0.96452761     -0.28634234      1.43633973
H      -0.31311135     -1.65811695      0.52876673
H       0.18064721     -0.02153329     -1.22347069
H      -0.37004596      1.97459474      0.82925327
H       0.40273708      2.26589182     -0.73570353
H       1.53094716      0.42065279      1.34068860
H       2.46997721     -0.42920743     -1.48428850
H       3.54284301     -0.14715156     -0.00785115
