17
b3lypvtz=-157954.23212795603
C      -2.02645218      0.71516329     -0.76215939
C      -1.42027917     -0.24658225      0.23763145
N      -0.35161930     -1.13058125     -0.42134925
H      -0.09546841     -1.84666985      0.25724408
H      -0.79259084     -1.62899900     -1.19241080
C       0.92348333     -0.53723711     -0.90918832
C       1.79904475     -0.13853214      0.14088741
C       2.76100186      0.81230559      0.15720266
H      -2.75058781      1.35903321     -0.26369464
H      -2.54918602      0.18571909     -1.56265761
H      -1.25751703      1.34681536     -1.20493365
H      -0.90116589      0.27734114      1.03692475
H      -2.17626341     -0.90778866      0.67044467
H       0.73671676      0.12567892     -1.74544336
H       1.72974621     -0.75442634      1.04515670
H       3.44921607      0.89406987      0.98603735
H       2.92192109      1.47469015     -0.68486908
