11
b3lypvtz=-204939.79546944
C       1.35811326      1.34204009     -0.05036860
C       0.98178712      0.05349781     -0.07497761
N       1.83856688     -1.02971963      0.05861525
N      -0.33552762     -0.35944610     -0.36645552
C      -1.27844759      0.16372430      0.25676904
F      -2.54037905     -0.16232440     -0.03621669
H       0.65979415      2.12501008     -0.29652502
H       2.38867621      1.61752618      0.12103133
H       1.40808132     -1.87965994      0.38477957
H       2.72434604     -0.83197149      0.49352373
H      -1.22846272      0.89720511      1.05926353
