13
b3lypvtz=-179777.91712155
C      -0.49112738     -1.08545582     -0.19690154
C       0.43021579      0.14281493     -0.48777415
C      -0.70449914      1.00747121      0.09216462
N      -1.62769888     -0.14964818     -0.04453325
C       1.76691675      0.13568160      0.18623473
O       2.06738020      0.80966680      1.13936464
H      -0.60657166     -1.81510112     -0.99892849
H      -0.20325308     -1.60832081      0.72193100
H       0.57168333      0.27291532     -1.56233397
H      -1.00024722      1.88532179     -0.48257655
H      -0.48843872      1.30671297      1.12070535
H      -2.21453902     -0.32462332      0.76125478
H       2.50017903     -0.57743535     -0.24860719
