17
b3lypvtz=-158010.66783883
C      -1.07364143      1.49556664     -0.30162149
C      -0.75543995      0.25157420      0.04397719
C      -1.81511104     -0.80972373      0.18930396
C       0.66409277     -0.19926943      0.35173880
C       1.73403426      0.86709039      0.15331265
N       1.00658249     -1.36113063     -0.49498898
H      -0.33532072      2.27485355     -0.42279381
H      -2.10370064      1.77683564     -0.48221665
H      -1.74192079     -1.31549360      1.15697623
H      -2.81440771     -0.38516740      0.10396183
H      -1.71419541     -1.57537389     -0.58435046
H       0.66538602     -0.47123877      1.42159536
H       1.77494830      1.18475786     -0.88890266
H       1.55213520      1.73717656      0.78336329
H       2.71332382      0.46539091      0.42221587
H       0.41839080     -2.15501347     -0.27211803
H       1.95838403     -1.65057484     -0.29956911
