11
b3lypvtz=-202346.83742405
O       2.41306868      1.16262942      0.64006132
C       2.15817544      0.02535612      0.31014500
N       0.91545556     -0.44277547     -0.00737867
C      -0.23860959      0.35170676      0.01070213
C      -1.44882469     -0.10500692     -0.29903757
O      -2.54342803      0.71990507     -0.26379717
H       2.92327616     -0.76584343      0.23120023
H       0.83969096     -1.41301590     -0.26649473
H      -0.06821426      1.37752691      0.29933311
H      -1.62423110     -1.13576790     -0.58965910
H      -3.32625912      0.22508534     -0.51527455
