9
b3lypvtz=-201596.23795708
O       2.00354198     -0.02050032      0.00000437
C       0.81738114      0.02789735     -0.00000135
N      -0.00142153      1.21194229     -0.00002665
C      -1.20895098      0.81672817     -0.00001804
C      -1.34136851     -0.67511244      0.00001646
O       0.01259708     -1.09433667      0.00002453
H      -2.04772035      1.50383565     -0.00002570
H      -1.85697947     -1.05185029     -0.88774558
H      -1.85697534     -1.05180574      0.88779996
