11
b3lypvtz=-179029.93778273
C      -2.43895745     -0.04798837     -0.00002398
C      -1.25068741     -0.64776546      0.00002262
C       0.01471673      0.12456807      0.00005955
O       0.06024658      1.33857894      0.00006513
C       1.30621137     -0.67581198      0.00000125
N       2.44996845     -0.13980470     -0.00004988
H      -3.36174808     -0.61197746     -0.00006530
H      -2.50465231      1.03267917     -0.00002224
H      -1.17343244     -1.72868899      0.00002134
H       1.22737816     -1.76355302     -0.00001173
H       2.33521039      0.88117680     -0.00002876
