16
b3lypvtz=-168087.56281788
C       1.23724191      0.92486504      0.88729647
C       0.81378215     -0.10845935     -0.12648131
N       1.60170471     -0.78972108     -0.85496595
C      -0.68091111     -0.36028697     -0.29533255
C      -1.41316268      0.87686848     -0.81818110
N      -1.25515152     -0.75241004      1.00243393
H       0.96714009      1.92771339      0.54748838
H       2.31488007      0.89673912      1.04559320
H       0.72232386      0.76048168      1.83354621
H       2.57510000     -0.54083731     -0.66996082
H      -0.75625806     -1.14979881     -1.05002423
H      -0.97000468      1.22301449     -1.75215914
H      -2.46024796      0.63642537     -1.01498703
H      -1.38787799      1.68948550     -0.09149519
H      -2.26475327     -0.80777541      0.93264833
H      -0.93044350     -1.67711908      1.26221780
