17
b3lypvtz=-181320.43174362
C      -0.60039888      1.36791123      0.63487145
C      -0.43056410      0.00256923     -0.02193721
C      -0.60825248     -1.12657723      0.99524405
O      -1.47577519     -0.06798347     -1.00849923
C       0.92324792     -0.10538217     -0.76618047
N       2.15700521     -0.00464034      0.00319542
H      -1.58211003      1.44052126      1.10317318
H       0.15606850      1.53268328      1.40282431
H      -0.52121683      2.15864697     -0.11222619
H      -0.52915617     -2.10263674      0.50843504
H       0.14576457     -1.08397279      1.78330483
H      -1.59061038     -1.05927683      1.46289017
H      -1.41684726     -0.92012718     -1.45394299
H       0.93295023      0.66954395     -1.53561943
H       0.93766491     -1.06510495     -1.29515573
H       2.23819855      0.89439850      0.45993880
H       2.21487842     -0.71868771      0.71765399
