9
b3lypvtz=-199142.53460531
N       2.01128123     -0.59567141      0.00000086
N       0.79778527     -0.82071273     -0.00004681
C       0.01516352      0.42984149      0.00002934
N       0.47602635      1.60348725      0.00010584
C      -1.47523056      0.24194908      0.00007483
O      -2.02350711     -0.82682581      0.00000297
H       2.48977625     -1.50657243     -0.00019744
H       1.50236535      1.57539951      0.00004489
H      -2.02229629      1.20170805      0.00015952
