8
b3lypvtz=-216664.01180956687
C      -0.40474980     -0.74374827      0.04358605
C      -1.23076468      0.27191324     -0.17972744
F      -0.77873909      1.53357137     -0.28221760
N       0.96662668     -0.64116942      0.19323756
C       1.81739168      0.21355275      0.18948341
O       2.73863338      0.92852366      0.21123877
H      -0.80870057     -1.74172036      0.11910852
H      -2.29969759      0.17907703     -0.29470926
