14
b3lypvtz=-167324.54933725
C      -2.47493284     -0.13301409      0.03444215
C      -1.08824034     -0.69143000     -0.01498448
C       0.05670253      0.01488974     -0.03949254
N       0.14507607      1.40747028      0.04439507
C       1.33893313     -0.71306549     -0.06908767
N       2.51118534     -0.24487563      0.08216698
H      -3.17047934     -0.77064456     -0.51362882
H      -2.85073853     -0.06350239      1.06097751
H      -2.53893607      0.86776070     -0.39973830
H      -0.99181648     -1.76969810      0.00769890
H      -0.73531578      1.89268686     -0.02914191
H       0.83196708      1.81437823     -0.57550637
H       1.24253297     -1.78466356     -0.24761143
H       2.48415927      0.75718300      0.28173493
