11
b3lypvtz=-230646.16247632
O       2.22301908     -0.00379266      0.45004018
C       1.21243110      0.58952069      0.16079544
C       0.04345628     -0.11876718     -0.48939742
O       0.30688478     -1.48663463     -0.64834920
C      -1.23551391      0.04657674      0.33714739
F      -1.58846290      1.39324230      0.38390230
H       1.09119268      1.66766429      0.35796040
H      -0.12453811      0.36620906     -1.46291644
H       1.20666570     -1.63102674     -0.31486572
H      -1.09011107     -0.31126642      1.35783760
H      -2.04512362     -0.51172544     -0.13215454
