18
b3lypvtz=-147946.25734901
C      -0.38985415      1.64596199     -0.20714297
C       0.00817268      0.42986690      0.16054477
C      -0.91719025     -0.76329716      0.23095494
C      -2.37549147     -0.52784073     -0.15047721
C       1.44683784      0.16563047      0.54667681
C       2.22886125     -0.67092969     -0.47719672
H       0.30383463      2.47726319     -0.23085863
H      -1.40909642      1.86189085     -0.49566478
H      -0.86922556     -1.16241518      1.25138412
H      -0.50743266     -1.55981675     -0.39908011
H      -2.46896215     -0.18426221     -1.18188606
H      -2.94673905     -1.45233985     -0.05600801
H      -2.84298454      0.21823945      0.49392942
H       1.95769754      1.11959936      0.68960883
H       1.47002594     -0.34890070      1.51355616
H       2.24577251     -0.17610705     -1.44955189
H       1.79288194     -1.66134926     -0.61335824
H       3.26109494     -0.80957961     -0.15142243
