14
b3lypvtz=-167316.3992191
C      -3.00483097      0.10497775     -0.00003178
N      -1.68689693     -0.49114910     -0.00002441
C      -0.67916422      0.27649482      0.00003651
C       0.67916420     -0.27649388     -0.00003099
N       1.68689725      0.49114935      0.00002424
C       3.00483077     -0.10497829      0.00002487
H      -2.99524891      1.20237708     -0.00001707
H      -3.55435980     -0.24739778      0.87572098
H      -3.55433991     -0.24737498     -0.87580668
H      -0.74906514      1.37106345     -0.00000026
H       0.74906449     -1.37106267      0.00000156
H       2.99524825     -1.20237763      0.00000558
H       3.55434284      0.24737028      0.87579950
H       3.55435709      0.24740059     -0.87572805
