15
b3lypvtz=-185561.73926161
C      -2.91241397     -0.45667952      0.12147722
C      -1.67911614      0.39251719      0.09573241
C      -0.48160542     -0.00503251     -0.32101647
C       0.74976639      0.85233222     -0.34397966
C       1.90409684      0.27549749      0.45952479
F       2.31429186     -0.94101480     -0.09542147
H      -3.70268878     -0.02370662     -0.49842502
H      -3.31806655     -0.53344244      1.13422839
H      -2.71158868     -1.46527750     -0.24077784
H      -1.79705080      1.41570748      0.44649314
H      -0.35367406     -1.02409231     -0.67481387
H       1.09797936      0.98755299     -1.37357344
H       0.52635990      1.84758735      0.05098317
H       1.61266525      0.07932360      1.49343994
H       2.76675979      0.94502239      0.44707271
