16
b3lypvtz=-168084.87826332
C       1.22778761     -1.24594776      0.07102887
C       0.32958063      0.00394886      0.01737551
C       0.94959005      1.05935396     -0.91123319
N       0.11780155      0.61401726      1.33512728
C      -1.02720977     -0.39650808     -0.56223123
N      -2.16928548     -0.10148515     -0.11370100
H       1.33927430     -1.70347322     -0.91446761
H       0.80631464     -1.99787048      0.74156217
H       2.22239377     -0.98208858      0.43550098
H       1.95617988      1.31948617     -0.57438884
H       1.02736113      0.68495311     -1.93233500
H       0.33958201      1.96229808     -0.91977254
H      -0.03763790     -0.09733680      2.04073156
H       0.93254512      1.14330529      1.61999042
H      -0.97083919     -0.99935028     -1.47331266
H      -2.05514335      0.47556763      0.72618029
