16
b3lypvtz=-168083.5308687
C       1.82499696     -1.07164990     -0.44149263
C       0.89428377     -0.49719031      0.63885966
C      -0.06465892      0.54403389      0.12912430
N       0.49532588      1.84956655      0.04146622
C      -1.34845359      0.30501155     -0.16815615
N      -2.02479415     -0.93610646     -0.12377091
H       2.42819446     -0.28984258     -0.90781978
H       2.51364229     -1.80350787     -0.01530284
H       1.25236541     -1.56058600     -1.23049506
H       0.34424688     -1.31744660      1.10657321
H       1.49568573     -0.04516047      1.43263378
H      -0.12003111      2.50145077     -0.42723691
H       1.38669335      1.85562413     -0.43973902
H      -1.96565689      1.11360399     -0.54519137
H      -2.94191829     -0.86254867      0.29711458
H      -1.50456377     -1.66249803      0.34792792
