14
b3lypvtz=-167304.39072717787
C      -0.92137617     -1.20914699     -0.40224565
C       0.02066038      0.00444342     -0.41070776
C      -0.77196871      1.31855991     -0.33313479
C       1.03802744     -0.08869597      0.70408587
N       2.30342197     -0.13554503      0.45670245
N       3.41450130     -0.17668261      0.21610462
H      -0.36599997     -2.14001690     -0.51862535
H      -1.65133811     -1.14030094     -1.21148382
H      -1.47300379     -1.26328964      0.53929445
H       0.57491566     -0.00236371     -1.35309171
H      -1.32721119      1.38011230      0.60579930
H      -1.49266320      1.38654642     -1.15078774
H      -0.10928105      2.18241099     -0.38735870
H       0.76131544     -0.11603127      1.74793382
