13
b3lypvtz=-177376.49453962
C      -2.47159914      0.49363883     -0.24953501
C      -1.47428542     -0.37425894     -0.08242119
N      -0.14109322     -0.04953356      0.10756396
C       0.88607152     -0.96508212      0.09752704
N       2.12547874     -0.70606575      0.25785880
N       2.39462499      0.68054871      0.45478861
H      -3.48224720      0.13922684     -0.37631747
H      -2.30884993      1.56362698     -0.26338591
H      -1.66438375     -1.44113919     -0.07042623
H       0.13991405      0.91787033      0.02773383
H       0.59910491     -1.99867459     -0.05813566
H       3.39858885      0.75900789      0.54710457
H       1.99867561      0.98083455      1.34554466
