12
b3lypvtz=-187434.05726327
C       2.31156969     -0.79133230      0.00140040
N       1.82950214      0.57831792     -0.00013071
C       0.59132354      0.83063455     -0.00112508
N      -0.43817753     -0.13663129     -0.00364918
N      -1.57041771      0.40500038     -0.01019089
N      -2.57677735     -0.45542761      0.03492880
H       2.96223746     -0.92418734      0.86860677
H       2.93940213     -0.93459540     -0.88106214
H       1.53066566     -1.55319580      0.01576886
H       0.25572474      1.86857407      0.00000755
H      -2.37629149     -1.43632861     -0.12755690
H      -3.47391628     -0.07363957     -0.20568646
