13
b3lypvtz=-156498.24338161
C       1.83264764     -0.87442664     -0.44913205
C       0.90205746     -0.07447559      0.05897948
C       1.02834648      1.42056551      0.10239049
C      -0.36413406     -0.65782834      0.66433196
C      -1.58431683     -0.19021766      0.00469146
N      -2.53697500      0.18651079     -0.51878671
H       1.71316086     -1.94993388     -0.47065286
H       2.75015657     -0.47648992     -0.86247645
H       0.20412641      1.89945554     -0.43164752
H       1.96470903      1.75072788     -0.34367744
H       0.99069569      1.78600375      1.13290962
H      -0.43520416     -0.38009073      1.72121072
H      -0.34304810     -1.74714271      0.61865929
