14
b3lypvtz=-213929.01289086
N      -1.53317136      0.34113077      0.68286351
C      -0.68358147      0.24658733     -0.49673400
N      -0.33810517     -1.15226170     -0.71091228
O       0.44247150      1.08284200     -0.30742719
C       1.46145729      0.56495855      0.54044662
O       2.37737552     -0.23509265     -0.14957779
H      -1.66334357      1.31584685      0.92584586
H      -2.44610580     -0.06135340      0.50270760
H      -1.14074220      0.64932637     -1.40697701
H      -0.71525666     -1.73842663      0.02165740
H      -0.62746999     -1.49361212     -1.61548934
H       0.99901103      0.02801006      1.37460469
H       2.00878578      1.42767187      0.91406825
H       1.85887509     -0.97552729     -0.49387633
