14
b3lypvtz=-223953.9834376
C      -1.74650815     -0.83043510     -0.25969459
C      -0.64958822      0.22298377     -0.44088555
C      -0.81307078      1.40493218      0.51828819
C       0.71883494     -0.42002352     -0.30907288
F       1.71129281      0.48830276     -0.57406204
F       0.93034572     -0.87425691      0.96878524
H      -1.72883007     -1.24099880      0.75061278
H      -1.63159695     -1.65805175     -0.96272380
H      -2.72837849     -0.38718228     -0.42644342
H      -0.68984131      0.59489385     -1.46960370
H      -1.77921742      1.88489058      0.35953836
H      -0.03407537      2.15080860      0.36571048
H      -0.76732564      1.07276083      1.55586400
H       0.86353293     -1.26819422     -0.98254107
