15
b3lypvtz=-157243.31023561
C      -2.42800458     -0.19328682      0.11065139
C      -1.19762434     -0.69253797     -0.04484506
N      -0.00000107      0.00183714     -0.10451012
C       0.00000310      1.44914628     -0.06005384
C       1.19761998     -0.69253975     -0.04484233
C       2.42799904     -0.19328187      0.11065166
H      -2.63533453      0.85733781      0.24649713
H      -3.27109640     -0.86658756      0.10661969
H      -1.06546285     -1.76326465     -0.14358988
H      -0.88221271      1.82674981     -0.57291588
H       0.88222868      1.82673041     -0.57291413
H       0.00001079      1.82983086      0.96641308
H       1.06545633     -1.76326623     -0.14358286
H       3.27109697     -0.86657525      0.10661096
H       2.63531959      0.85734478      0.24650320
