10
b3lypvtz=-191480.68806185
C       2.54356464      0.69151976      0.42070822
C       1.53539753      0.22162363     -0.03860506
C       0.38469991     -0.35538280     -0.62022228
C      -0.85401046     -0.22489819     -0.12699402
O      -1.11970085      0.35329852      1.06919444
O      -1.93725240     -0.67710468     -0.81413566
H       3.42547453      1.11017866      0.83567429
H       0.49403395     -0.94064887     -1.52279118
H      -1.91144255      0.90135347      0.99318761
H      -2.56076430     -1.07973949     -0.19591637
