15
b3lypvtz=-180531.70633213292
C      -2.55708414      0.31703960      0.06765675
C      -1.50428707     -0.77834728      0.20758895
N      -0.17839652     -0.34084579     -0.20262477
C       0.82584248     -0.20462852      0.64831276
O       1.89567143      0.23211387     -0.03519454
C       3.08595691      0.42609971      0.73101672
H      -2.63749647      0.66224273     -0.96528186
H      -3.53665818     -0.05664631      0.37061560
H      -2.30526318      1.17379645      0.69330902
H      -1.41160877     -1.09632916      1.24424713
H      -1.79015870     -1.65255398     -0.38399294
H      -0.04436424     -0.11287206     -1.18710009
H       3.40595273      1.46218590      0.61734602
H       3.86209085     -0.23492781      0.34386102
H       2.88980290      0.20367264      1.77827673
