13
b3lypvtz=-179758.08021676
C      -0.86382110     -1.17800996      0.00520362
C      -0.06848378      0.08685299      0.10362184
C      -0.75761519      1.34202713     -0.33191494
C       1.20056669      0.12821713      0.55500090
N       1.84705322     -1.05060152      0.96356718
O       2.99222046     -0.88377169      1.35133289
H      -1.77552731     -1.09064395      0.60300657
H      -1.18676225     -1.33373641     -1.02809451
H      -0.29964079     -2.04307372      0.33784175
H      -1.66606063      1.49964510      0.25655250
H      -1.07724919      1.25694377     -1.37453615
H      -0.12165836      2.21969290     -0.23293108
H       1.77677824      1.04655824      0.62594943
