12
b3lypvtz=-189838.45789221
C      -0.47559082      1.72608864      0.05423543
C       0.06371666      0.33181702     -0.02673851
C      -0.68776096     -0.77671104     -0.06865752
O      -2.04287807     -0.73494781      0.02230549
N       1.46762104      0.24020163     -0.18924187
N       2.00760959     -0.80984766      0.21400359
H      -1.55224872      1.73964488     -0.10213018
H       0.00438853      2.35370790     -0.69812770
H      -0.26832584      2.17405454      1.02979950
H      -0.22497555     -1.74735731     -0.19218281
H      -2.40761507     -1.60007764     -0.18418613
H       3.00265020     -0.73604813     -0.03400031
