13
b3lypvtz=-156459.31585023
C       3.51873650      0.06700045      0.19249323
C       2.36951108     -0.22197471     -0.01449594
C       1.02487843     -0.60630844     -0.26009674
C       0.00050818      0.24510014     -0.36032116
C      -1.41184647     -0.15641098     -0.64991955
N      -2.32222151      0.32956306      0.39936861
H       4.52919645      0.33291790      0.37764373
H       0.84506667     -1.67177976     -0.37084971
H       0.18779546      1.30812298     -0.23977449
H      -1.67627459      0.21098804     -1.65462068
H      -1.48131357     -1.24529391     -0.68348087
H      -3.27516247      0.06478996      0.17735195
H      -2.30887416      1.34328526      0.43079890
