18
b3lypvtz=-147948.12845048
C      -2.88525703     -0.00000744      0.17492834
C      -1.50960310     -0.00000091     -0.41878202
C      -0.37350542     -0.00000449      0.27030594
C       1.01168484      0.00000398     -0.31696409
C       1.78226756      1.26410660      0.09439403
C       1.78228140     -1.26409188      0.09438839
H      -3.45536660     -0.87652587     -0.14624464
H      -2.85057803     -0.00001796      1.26503125
H      -3.45536735      0.87651676     -0.14622765
H      -1.45868426      0.00000800     -1.50556223
H      -0.42010222     -0.00001295      1.35902357
H       0.91593460      0.00000594     -1.40722373
H       1.89088417      1.31662544      1.18080777
H       2.78425289      1.26960863     -0.33984985
H       1.26360756      2.16605313     -0.23288598
H       1.26363028     -2.16604291     -0.23289333
H       2.78426589     -1.26958212     -0.33985753
H       1.89090083     -1.31661295      1.18080176
