13
b3lypvtz=-179775.74929594
C       0.11280576      1.60000649     -0.01186790
C       0.23334397      0.09917784     -0.02538220
C      -1.01353377     -0.72136904      0.03977326
N      -2.21316062     -0.33392684     -0.06740672
C       1.41641218     -0.54723679     -0.62521154
O       1.29467098     -0.45025187      0.78768926
H       1.10314338      2.05144144     -0.00088525
H      -0.41799097      1.96057708     -0.89508427
H      -0.42643154      1.93791014      0.87463210
H      -0.82869464     -1.78482850      0.20753642
H      -2.27081062      0.67620995     -0.20931469
H       1.33860208     -1.55040627     -1.03343193
H       2.17618180      0.08339637     -1.07677355
