9
b3lypvtz=-199167.40071615
N      -2.02530772      0.14929672      0.00001614
C      -0.77039594      0.03405331     -0.00003403
N       0.15317122      1.06893575     -0.00006931
H      -0.09776245      2.04065181     -0.00010743
C       1.39810656      0.51740013      0.00000534
N       1.38674535     -0.76570819     -0.00026795
O      -0.00648025     -1.10756356      0.00006870
H      -2.48519058     -0.75476310      0.00012556
H       2.31105681      1.09050713      0.00028198
