15
b3lypvtz=-180550.55720619
C      -2.79471048     -0.46002787      0.12025176
N      -1.66296228      0.44596352      0.13526424
C      -0.55185399      0.02173326     -0.28967206
C       0.67268049      0.88855639     -0.31248833
C       1.84315295      0.29266005      0.46141149
O       2.24787776     -0.90687961     -0.19742285
H      -2.55561782     -1.45934979     -0.26786319
H      -3.59264292     -0.02713710     -0.48688499
H      -3.18857025     -0.55919489      1.13401312
H      -0.42562124     -1.00474320     -0.65866454
H       0.99565179      1.02815481     -1.34945822
H       0.41696667      1.86555930      0.09827901
H       2.66484690      1.01737004      0.48870329
H       1.54028292      0.08758161      1.49486122
H       2.93888950     -1.32861252      0.32040008
