12
b3lypvtz=-166525.84961875
C       3.24498929     -0.16953675     -0.00150770
C       1.80755508      0.04802140     -0.00422197
C       0.61297192      0.20546297     -0.00341852
C      -0.77842625      0.47630637     -0.00993918
N      -1.65181695     -0.46141542      0.02592390
N      -2.96270669     -0.10448230      0.08552363
H       3.78071358      0.74044069     -0.27893554
H       3.59535935     -0.47530655      0.98698680
H       3.52448647     -0.95210948     -0.71018269
H      -1.08050848      1.52880338     -0.04328874
H      -3.19671617      0.81094663     -0.29059355
H      -3.55387515     -0.83849195     -0.27020045
