11
b3lypvtz=-197469.23321622
C      -1.32722561     -0.50794660     -0.21982545
N       0.06634880     -0.27446715      0.10808262
N       0.78311871     -1.34894030      0.66193507
N       1.96821236     -1.19595519      0.95588276
N       0.68312503      0.88361342     -0.08593285
N      -0.03299043      1.78320753     -0.58304393
H      -1.96617889      0.17855773      0.33601799
H      -1.49761252     -0.34361918     -1.28400312
H      -1.54605441     -1.53644807      0.04833343
H       2.29285443     -0.23784283      0.74136314
H       0.57640254      2.59984062     -0.66930100
