13
b3lypvtz=-179796.29527389
C      -2.26164844      0.45082793      0.15264298
C      -1.57006359     -0.67085609     -0.10868354
C      -0.15099380     -0.93473730     -0.01476749
C       0.85008721     -0.02100419     -0.00050196
N       0.71359783      1.34228388     -0.05509488
O       2.16666607     -0.36149429      0.08006601
H      -3.33210848      0.47680250      0.00437852
H      -1.81645233      1.34187365      0.57384803
H      -2.15004200     -1.52708777     -0.44288798
H       0.15038436     -1.97540616     -0.01181612
H       1.54150692      1.82573918     -0.36810739
H      -0.14394864      1.66590635     -0.47786436
H       2.23524891     -1.31569769      0.18694217
