10
b3lypvtz=-212354.38442979
O      -2.61221889     -1.80468041     -0.00561838
N      -1.73810384     -0.72162529     -0.04720639
C      -0.52167065     -1.10366939      0.01547766
C       0.52167047     -0.10323029     -0.01547769
N       1.73810365     -0.48527459      0.04720637
O       2.61221914      0.59778018      0.00561840
H      -3.47841544     -1.38728499     -0.05983607
H      -0.24838758     -2.15333824      0.09101643
H       0.24838754      0.94643856     -0.09101645
H       3.47841559      0.18038447      0.05983610
