10
b3lypvtz=-189121.29926479
C      -0.37307266     -1.10844855     -0.19569619
C      -0.63161489      0.22033340     -0.39112332
N       0.56635674      0.86836078     -0.27196944
C       1.51066099     -0.09479360     -0.00771293
N       0.97660486     -1.28339055      0.04318270
O      -1.73993861      0.95736817     -0.65584850
H      -1.06379271     -1.93454912     -0.21218067
H       0.70296944      1.86021457     -0.36448379
H       2.55119782      0.14555308      0.13302505
H      -2.49937098      0.36935183     -0.71074745
