10
b3lypvtz=-212417.23195716
C       1.97188637      0.62852358     -0.23315421
N       0.70444916      0.71121063     -0.21121303
N       0.00048535     -0.43881685     -0.32991841
C      -1.37110227     -0.49905682     -0.32215128
O      -1.97050461     -1.54404321     -0.43071869
O      -1.95102121      0.70649779     -0.18353264
H       2.51460651     -0.31347015     -0.34159201
H       2.53586131      1.54597599     -0.13870750
H       0.46779402     -1.33308776     -0.43292304
H      -2.90255462      0.53626679     -0.19218919
