15
b3lypvtz=-203853.44294826
O       1.81356699      0.72586651     -1.43418686
C       1.34819924     -0.60394908     -1.29269170
C       0.55113746     -0.78021979     -0.00633735
N      -0.56639162      0.16567379      0.00503805
C      -1.23197236      0.32715487      1.28612083
O      -2.16163476      1.38404455      1.23635371
H       1.07814453      1.28820377     -1.15606445
H       2.22231058     -1.25648735     -1.28344969
H       0.72847941     -0.89608058     -2.15335552
H       0.23711936     -1.82907581      0.09835288
H       1.19603306     -0.54414848      0.84318710
H      -1.25412794     -0.09235401     -0.69533888
H      -1.81552947     -0.54982392      1.59254822
H      -0.45335247      0.49660852      2.03936955
H      -1.69198203      2.16458699      0.92035412
