14
b3lypvtz=-169714.90867615
C      -2.59396315     -0.20983124     -0.16633461
C      -1.40976158      0.13844724      0.31311144
O      -0.27130575     -0.55001149     -0.00838855
C       0.93620763      0.11127582     -0.03337780
C       1.06584964      1.43238565     -0.13825575
C       2.06077377     -0.86976899      0.04389020
H      -3.48086809      0.30464116      0.17104907
H      -2.70081263     -1.01363457     -0.88086892
H      -1.26600577      0.94379749      1.02465702
H       0.22061839      2.09549593     -0.24198116
H       2.05112239      1.87214773     -0.14260348
H       1.98389580     -1.59401013     -0.76968398
H       2.01685335     -1.42991277      0.98027307
H       3.02206700     -0.36584784     -0.02421955
