15
b3lypvtz=-157242.88895713
C      -2.52771225     -0.17392544     -0.20171591
C      -1.33556497     -0.58555512      0.21713016
C      -0.05974657      0.14567528      0.07016144
C       0.01488401      1.48867321      0.12428890
N       1.03216445     -0.68224871     -0.13358713
C       2.38512544     -0.18248858     -0.05691904
H      -3.41519091     -0.76826453     -0.03102828
H      -2.65381613      0.76239788     -0.72920623
H      -1.26351341     -1.55487963      0.70581815
H      -0.87510211      2.07255543      0.29370257
H       0.94551031      2.02214143      0.00643053
H       0.90111429     -1.64324638      0.12852118
H       3.07957912     -1.01612383     -0.14514335
H       2.58525522      0.34663545      0.88388663
H       2.58845252      0.51003554     -0.87719564
