18
b3lypvtz=-147949.08924907
C      -2.59969728     -0.18356043      0.49061802
C      -1.52115490      0.21691557     -0.52641285
C      -0.23377822     -0.52881316     -0.32559067
C       0.97915643     -0.04691769     -0.04207365
C       1.30957872      1.41173286      0.12772377
C       2.15611021     -0.97118924      0.13197446
H      -3.54008617      0.33369540      0.29146276
H      -2.79555196     -1.25718644      0.45318580
H      -2.28713298      0.05921148      1.50755278
H      -1.36399375      1.29488341     -0.48327964
H      -1.89837023      0.00533920     -1.53335888
H      -0.32633599     -1.60922478     -0.41672420
H       1.74623792      1.59244687      1.11472661
H       0.44802526      2.06591378      0.01781898
H       2.06250203      1.72209661     -0.60342785
H       1.87480468     -2.01573675      0.00153932
H       2.59965286     -0.85862030      1.12627920
H       2.94749038     -0.73891739     -0.58771296
