13
b3lypvtz=-179733.6980788699
C      -1.95634137      0.23031982      0.25416100
N      -0.49800346      0.37779799      0.48342038
H      -0.18618826      1.28817668      0.11186703
H      -0.31440817      0.41804760      1.48227208
C       0.30361534     -0.85109520     -0.03370055
C       1.75163123     -0.64229117      0.27831985
C       2.45260104     -0.00993270     -0.64183379
O       2.97845949      0.51977538     -1.54385302
H      -2.13220387      0.20982540     -0.81834943
H      -2.50029085      1.06022854      0.70329761
H      -2.25793982     -0.72194400      0.68011079
H       0.11539100     -0.83917706     -1.10989622
H       2.24367771     -1.03973127      1.15817302
