10
b3lypvtz=-214818.41291029
O       1.83244468      1.13869513      1.14087951
C       1.13699295      0.14874404      0.97671739
C       0.07307619      0.14077811     -0.00033740
O      -0.11543511      1.28243767     -0.72437602
C      -0.71577531     -0.92832164     -0.21255060
O      -1.71110656     -0.96313092     -1.11359074
H       1.28660158     -0.77513978      1.55981637
H       0.55704133      1.90831997     -0.40636165
H      -0.59269145     -1.84561903      0.34299937
H      -1.75104831     -0.10666356     -1.56309623
