12
b3lypvtz=-166558.73956773
C       1.25659890     -0.57177217      0.19829085
C       1.03189768      0.81349566     -0.34650478
N      -0.09560274      1.37367179     -0.47016706
C      -1.25481051      0.60863470     -0.01836462
C      -1.03514586     -0.88016317      0.02096208
N       0.09197353     -1.44826880      0.10588448
H       1.55941954     -0.50700337      1.25097775
H       2.09512836     -1.04773598     -0.31641656
H       1.90980670      1.36529858     -0.68563318
H      -2.10484057      0.84729471     -0.66259115
H      -1.53723568      0.96401442      0.98062725
H      -1.91718933     -1.51746639     -0.05706509
