14
b3lypvtz=-167298.93606342553
C       1.55523690      0.71692786      0.15464936
C       0.35038035      0.20709583     -0.61177613
C      -0.89949082     -0.12802431      0.17293108
C      -0.75980903     -1.42611290     -0.12882962
N       0.39761620     -1.25907011     -0.99726132
N      -1.76771419      0.69306557      0.88188505
H       2.44563099      0.72250175     -0.47838019
H       1.38919477      1.73834289      0.50329209
H       1.74713074      0.09118944      1.02832622
H       0.16914952      0.81908307     -1.50054281
H      -1.29983158     -2.34421192      0.04902847
H       1.23745269     -1.69847232     -0.62401554
H      -2.65965328      0.26674924      1.09021898
H      -1.90529328      1.60093589      0.46047435
