15
b3lypvtz=-180536.32848534
O       1.94366428     -0.61074773      0.78406974
C       1.48097590     -0.87377543     -0.55576284
N       0.49878632      0.06906136     -0.96510507
C      -0.81789036     -0.03410509     -0.39051437
C      -1.57399644      1.21411388     -0.05653551
C      -1.12261845      0.29449530      1.05263496
H       2.60423201     -1.27156025      1.01747838
H       2.32841899     -0.82166808     -1.24766402
H       1.04376085     -1.87637085     -0.61082667
H       0.85536934      1.01413950     -0.95932633
H      -1.39922909     -0.83810330     -0.82879978
H      -1.05344386      2.15723129     -0.16614287
H      -2.62508243      1.26200888     -0.30445579
H      -0.29262925      0.61124382      1.66571713
H      -1.87021780     -0.29616330      1.56523304
