10
b3lypvtz=-217411.54387219
C       1.08767845     -0.34234043     -0.59943124
C       0.18671967      0.38617590      0.06001123
O       0.26533302      1.72196592      0.29528694
C      -1.04535524     -0.21484844      0.64404503
N      -1.73602924     -1.17768525      0.24611544
F      -1.41627794      0.41261334      1.76994901
H       1.97459910      0.10589985     -1.02708301
H       0.96693666     -1.40865804     -0.70346386
H       1.09731711      2.06106301     -0.05360915
H      -1.38092159     -1.54418585     -0.63182038
