9
b3lypvtz=-199206.1756686108
C       1.98711131     -0.73599893     -0.40917062
N       0.78009795     -0.81586485     -0.31490580
C      -0.18709635      0.21004562     -0.37037486
N       0.16386838      1.42069276     -0.54071786
N      -1.44081981     -0.31249030     -0.21934357
O       3.14345573     -0.79908821     -0.48266968
H      -0.63674926      2.04703064     -0.55996545
H      -1.56496839     -1.29914967     -0.09206689
H      -2.24489956      0.28482295     -0.23448279
