11
b3lypvtz=-207344.4844578
C       0.88407257      1.60626928      0.00000699
C       0.03251454      0.37089928     -0.00000095
C       0.70873083     -0.94079325     -0.00000983
O       1.91471715     -1.05697297      0.00000426
C      -1.29887608      0.44692653      0.00001408
F      -2.09258912     -0.63532819     -0.00000552
H       1.53532036      1.62053159     -0.87491376
H       0.27781456      2.51147975      0.00002395
H       1.53533853      1.62050939      0.87491436
H       0.05270100     -1.82718337      0.00001566
H      -1.87134733      1.36581697      0.00001778
