14
b3lypvtz=-169725.33932688
C      -0.86256889      1.45355854     -0.06103054
C      -0.93961923      0.12521001     -0.03717585
C      -2.25301847     -0.60432335      0.01749879
C       0.29049933     -0.75817774     -0.09346455
C       1.55622620     -0.09117808      0.38366734
O       2.56459705      0.01164948     -0.26606917
H       0.08188771      1.97917254     -0.11903837
H      -1.75451222      2.06628546     -0.03750866
H      -2.32637708     -1.20849503      0.92641808
H      -2.35077070     -1.29444124     -0.82549026
H      -3.09628648      0.08450523     -0.00588932
H       0.12912326     -1.63016824      0.55355078
H       0.45160374     -1.13862863     -1.10529647
H       1.50632478      0.30870404      1.41764520
