12
b3lypvtz=-168920.87133421
C       1.81520366     -0.61723887     -0.25711383
C       0.56916862     -0.19277939     -0.13746613
C      -0.73301422     -0.79654509      0.41280957
C      -1.35476922      0.60105888      0.23871477
C      -0.09315440      1.14053647     -0.31025414
O      -1.25885846      0.93058304     -1.14428662
H       2.09292403     -1.63768148     -0.02590796
H       2.60405861      0.04675908     -0.58771688
H      -1.20830259     -1.58565461     -0.16924316
H      -0.63374815     -1.10933129      1.45310744
H      -2.12529985      1.08408104      0.82215304
H       0.32579196      2.13621221     -0.29479609
