19
b3lypvtz=-158779.9537912
C      -3.19530301     -0.21948194      0.01705985
C      -1.87183707      0.54346235     -0.02695363
C      -0.64538496     -0.37003098      0.01579716
C       0.68213617      0.38666057     -0.03231144
C       1.90279283     -0.52638884      0.02166038
N       3.14163709      0.25282562     -0.08402096
H      -3.27768249     -0.81479238      0.92937814
H      -4.04918269      0.45944468     -0.01347330
H      -3.28514853     -0.90292021     -0.83042605
H      -1.83305217      1.15480674     -0.93376877
H      -1.82723424      1.24470740      0.81232150
H      -0.68574755     -0.98197379      0.92370055
H      -0.69216226     -1.07222498     -0.82398986
H       0.72734519      1.09185949      0.80598467
H       0.74005509      0.98911814     -0.94275974
H       1.84903405     -1.14452445      0.93056532
H       1.87334675     -1.21648896     -0.82603818
H       3.94770005     -0.36093818     -0.09320199
H       3.24727777      0.85221374      0.72723337
