17
b3lypvtz=-178912.33458187
C      -1.22368073      0.51532863      0.20481698
C       0.04556679     -0.29077897     -0.10220924
C       1.31158517      0.47436322      0.27244977
N       2.47290139     -0.41029624      0.19373679
N       0.14585894     -0.72781675     -1.49968583
N      -2.41793603     -0.27394513     -0.11925606
H      -1.23546168      1.41201239     -0.42181494
H      -1.19432378      0.85411501      1.25035330
H       0.02651163     -1.19957672      0.50988129
H       1.38194054      1.36135514     -0.38054009
H       1.22045141      0.84506938      1.29677694
H       3.33452879      0.11475337      0.27588295
H       2.47299819     -0.86254637     -0.71399263
H      -0.70760170     -1.21724499     -1.74725662
H       0.17984645      0.08968793     -2.10339027
H      -3.24679230      0.30696743     -0.11867125
H      -2.56639304     -0.99144734      0.58146108
