12
b3lypvtz=-189865.467908
C       2.18864396     -0.82319789      0.00002493
O       1.76864820      0.55401603      0.00003919
C       0.46234029      0.78463293      0.00005136
N      -0.42354544     -0.12669375     -0.00001474
C      -1.76081546      0.29219884     -0.00003446
N      -2.76252427     -0.48001476     -0.00003971
H       3.27375948     -0.79330964     -0.00002566
H       1.81427031     -1.33203276     -0.88662730
H       1.81435752     -1.33202804      0.88671707
H       0.26117766      1.85792349     -0.00003980
H      -1.94138911      1.37290936      0.00013163
H      -2.44495913     -1.45169280     -0.00010851
