11
b3lypvtz=-204947.50895394
C       1.57884795     -0.95159042      0.00002421
C       0.68042530      0.25326160     -0.00011384
N       1.03625167      1.47075959     -0.00033451
C      -0.80799855      0.01414332      0.00002173
N      -1.73553290      0.84562849     -0.00004885
F      -1.10792284     -1.30245548      0.00028857
H       2.62496685     -0.64986286     -0.00008881
H       1.38506471     -1.57520724      0.87441999
H       1.38495677     -1.57548539     -0.87414954
H       2.05098841      1.56483845     -0.00041295
H      -1.33212236      1.78268794     -0.00024500
