11
b3lypvtz=-199906.79450173
C      -0.67591792     -0.28609770      0.16066986
C      -1.78003889      0.45959642      0.03612408
O      -3.04942560      0.05819627      0.28733256
N       0.56064458      0.27829310     -0.13603205
N       1.52248287     -0.50530460      0.01588370
N       2.71152797      0.03645799     -0.35271334
H      -0.70854340     -1.32483391      0.48404221
H      -1.73170811      1.48806392     -0.29244396
H      -3.05037479     -0.86284841      0.57396659
H       2.72090961      1.05207627     -0.38655603
H       3.48044370     -0.39359937      0.13555538
