14
b3lypvtz=-169706.21782054
C      -2.83821706     -0.07008481     -0.25236177
C      -1.61305460     -0.04380729      0.18544578
C      -0.38154641     -0.02225853      0.60825577
C       0.83032589      0.03682678     -0.29626369
C       1.77524694     -1.13298395     -0.06814292
O       1.58782909      1.22473761     -0.03706766
H      -3.39768622      0.84231383     -0.42339180
H      -3.34474253     -1.00630968     -0.45639559
H      -0.17815888     -0.03311102      1.67609780
H       0.48901807      0.03085043     -1.33692549
H       2.65209767     -1.03055043     -0.70773398
H       2.10873179     -1.15362737      0.97043554
H       1.28018611     -2.07672957     -0.29635730
H       1.00240715      1.98163202     -0.14174970
