8
b3lypvtz=-167393.41518876
C       0.66073336      0.02621054      0.02338907
C      -0.54425655      0.04546710      0.03758328
C      -1.90278056      0.06493586      0.05190352
C      -3.11333020      0.09326001      0.07267998
C      -4.55366386      0.08198335      0.06428273
O      -5.23882156      0.88469941      0.65367541
H       1.72259697      0.01173299      0.01269759
H      -4.99977759     -0.73228927     -0.53371158
