10
b3lypvtz=-222398.15829792
C      -2.70786135      0.16269504     -0.16232328
C      -1.61018485     -0.26500895      0.05743908
C      -0.27364006     -0.78464269      0.30756574
C       0.81766627      0.06013650     -0.33302033
F       0.87921326      1.28674739      0.25713399
F       2.02479372     -0.55014360     -0.12979630
H      -3.67949920      0.54609925     -0.35031122
H      -0.18228800     -1.79887265     -0.08775282
H      -0.06765428     -0.83077827      1.37951871
H       0.68536348      0.20601798     -1.40595757
