15
b3lypvtz=-203855.8774905
N      -2.37114924     -0.28319509     -0.22256445
C      -0.99471824     -0.75867567     -0.11289276
C      -0.02188968      0.22424336      0.55620468
O      -0.03570762      1.48620615     -0.10995370
C       1.40319032     -0.30813921      0.63336344
O       1.89822138     -0.38370474     -0.70778520
H      -2.36502890      0.63652590     -0.65052607
H      -2.77399018     -0.16094580      0.70046828
H      -0.62657362     -0.98665829     -1.11564546
H      -0.99292135     -1.70004931      0.44398018
H      -0.36762911      0.42264222      1.57537589
H       0.53398875      1.38860879     -0.88365428
H       1.41384242     -1.29424374      1.11147540
H       2.01267733      0.37776029      1.22927374
H       2.85027475     -0.50693985     -0.68732070
