16
b3lypvtz=-170482.26330497
C       2.05744940      0.70180307     -0.26230412
C       1.23717819      0.04892759      0.85752948
C      -0.14770524     -0.34544743      0.42793034
C      -0.59008373     -1.60423987      0.37067662
O      -0.87511132      0.76083822      0.10366822
C      -2.20755805      0.57574089     -0.34438670
H       3.04442362      0.98936187      0.10273587
H       1.56117816      1.59576865     -0.63807638
H       2.19319365      0.01280242     -1.09749272
H       1.74984295     -0.83742775      1.23089848
H       1.14984795      0.74823691      1.69422391
H      -1.58629404     -1.87062696      0.05450588
H       0.07035200     -2.40956942      0.65269635
H      -2.81870703      0.09333266      0.42331238
H      -2.60046540      1.56805362     -0.55148343
H      -2.23754111     -0.02755447     -1.25574742
