13
b3lypvtz=-156445.91473908
C       2.83510181      0.57984877     -0.29142810
C       1.73470301      0.14098529     -0.09942959
C       0.40454241     -0.38714004      0.15791350
C      -0.68108409      0.54418381      0.77044266
C      -1.65364892     -0.11343142     -0.23119965
N      -0.48288944     -0.55946005     -1.02484487
H       3.80499063      0.97132836     -0.47108845
H       0.49660088     -1.30074189      0.75932809
H      -0.48557274      1.58855858      0.54098272
H      -0.88315678      0.42711749      1.83173629
H      -2.33998276      0.53870065     -0.77182204
H      -2.22505610     -0.92927831      0.22605297
H      -0.52454791     -1.50067123     -1.39664353
