19
b3lypvtz=-158780.2984947
C      -2.73830330      0.04015470     -0.06934479
C      -1.26232400     -0.02729559     -0.46394053
C      -0.33061924      0.03164342      0.75002508
C       1.17580687     -0.03165236      0.44977583
C       1.68912743      1.20453567     -0.30247458
N       1.50365062     -1.30774797     -0.20577058
H      -3.00614161     -0.78576340      0.59316191
H      -3.38860038     -0.01178856     -0.94422332
H      -2.96364086      0.97056295      0.45698348
H      -1.03953864      0.79242055     -1.15237774
H      -1.08592629     -0.95530456     -1.01467954
H      -0.53265811      0.95066341      1.30995368
H      -0.57130453     -0.80207183      1.41481339
H       1.68143209     -0.05880707      1.41970773
H       1.45575583      2.12750805      0.23438976
H       1.24900852      1.27644852     -1.29943461
H       2.77315326      1.15452169     -0.42420718
H       2.50936558     -1.42467553     -0.25441085
H       1.17403476     -1.30651010     -1.16498414
