12
b3lypvtz=-189882.77477617
C      -0.00956437      1.45871338     -0.00000349
N      -0.01700419      0.00273244     -0.00000827
C       1.18041581     -0.71319108     -0.00001118
N       2.36508594     -0.26810917      0.00000851
C      -1.22060069     -0.67708280     -0.00002910
O      -2.30966975     -0.15694946      0.00000798
H       0.49686810      1.83802838     -0.88871568
H      -1.04165671      1.79451367     -0.00003041
H       0.49681608      1.83802009      0.88874212
H       1.02300831     -1.79004041     -0.00002986
H       2.40742985      0.74948685      0.00002524
H      -1.07885339     -1.76891688      0.00004614
