8
b3lypvtz=-167385.00727717
C      -2.23799142     -0.90503207     -0.00002593
C      -1.22196810     -0.26520326     -0.00001859
C       0.00000419      0.51314791      0.00000822
O       0.00001290      1.72662858      0.00000743
C       1.22196579     -0.26521918     -0.00000140
C       2.23798379     -0.90505660     -0.00000161
H      -3.14209614     -1.46328265     -0.00002133
H       3.14208699     -1.46330973     -0.00000079
