13
b3lypvtz=-203092.65535042
C      -2.62419620     -0.08575435     -0.22527784
C      -1.44656734     -0.02751996      0.38120788
O      -0.30298930     -0.51002995     -0.17845939
C       0.90992302      0.04212852      0.30395029
N       1.93827266     -0.88892298     -0.00686307
O       1.16398593      1.29246335     -0.30944559
H      -3.50951287      0.25359277      0.29024216
H      -2.72659646     -0.49305864     -1.22097404
H      -1.33321506      0.37663457      1.38505023
H       0.83960490      0.16809429      1.39140568
H       1.96977450     -1.02957626     -1.01113229
H       2.83404322     -0.51829017      0.28446719
H       0.44730199      1.90463083     -0.10353322
