11
b3lypvtz=-225675.15507717
N      -2.11864164     -0.33144930      0.10696612
C      -0.85712097      0.11557133     -0.11680403
O      -0.56023839      1.27004072     -0.35579062
O       0.03393916     -0.90149390     -0.05696732
C       1.39391979     -0.51452950     -0.37477088
O       1.94554798      0.33061882      0.56926799
H      -2.83590781      0.35623864      0.24634216
H      -2.26568735     -1.26872272      0.43495483
H       1.94706751     -1.44868039     -0.36058434
H       1.38426920     -0.07422960     -1.37357026
H       1.50754553      1.18598790      0.46303434
