15
b3lypvtz=-180554.34036668
C       1.74236584     -0.98400122     -0.41597988
C       1.05435263     -0.14000757      0.66893258
C      -0.05185844      0.73005435      0.10874021
N       0.10036708      1.91192010     -0.32978213
C      -1.46180218      0.16281886      0.07678111
O      -1.52619908     -1.23708442     -0.18285001
H       2.18291828     -0.34233928     -1.18008463
H       2.53965950     -1.58944555      0.01739625
H       1.02814981     -1.64708178     -0.90125572
H       0.65591164     -0.80284034      1.44207299
H       1.78947858      0.50698574      1.15308712
H       1.06600312      2.22608294     -0.21681183
H      -1.94947024      0.40533412      1.02894042
H      -2.01497028      0.67076120     -0.71071905
H      -1.48524128     -1.71749316      0.64748757
