13
b3lypvtz=-205704.23726203
N      -2.66124282      0.36800421     -0.11756569
C      -1.82022902     -0.56374129      0.09184679
N      -0.45031860     -0.50428328      0.19758022
C       0.30892082      0.68106192     -0.14019230
C       1.74425172      0.53442451      0.30796540
F       2.32138873     -0.57260580     -0.32484085
H      -2.21457254      1.27198856     -0.26495557
H      -2.19966968     -1.57348517      0.24896532
H       0.04130001     -1.37669585      0.08555270
H       0.27835093      0.89788439     -1.21548800
H      -0.11600599      1.54502765      0.37856424
H       1.80717621      0.36170465      1.38343605
H       2.32866023      1.41467651      0.03775669
