16
b3lypvtz=-191392.59110948
C      -2.68059616     -0.20244888     -0.24060608
C      -1.38923917      0.28144047      0.40476153
N      -0.23369454     -0.43252092     -0.13892041
C       1.05626051      0.03538997      0.31356229
N       2.02253927     -0.98246727     -0.01707128
O       1.31013459      1.32432388     -0.24013724
H      -2.64797837     -0.05986503     -1.32155297
H      -3.53877926      0.34239691      0.15605334
H      -2.84597279     -1.26546775     -0.04746433
H      -1.45760024      0.17521492      1.49887498
H      -1.24589385      1.34359373      0.20402575
H      -0.30212568     -1.42455086      0.05401407
H       1.11148341      0.21027381      1.39636230
H       2.95141370     -0.68128959      0.24856798
H       2.02003176     -1.15137219     -1.01785888
H       1.06028683      1.27383379     -1.17228306
