14
b3lypvtz=-146391.68693335
C      -3.00026329     -0.00003611     -0.19091415
C      -1.57007558     -0.00009509      0.08485620
C      -0.38920179     -0.00025602      0.31504152
C       1.01995487     -0.00045098      0.59388166
C       1.98265687     -0.74855800     -0.30897950
C       1.98264561      0.74908413     -0.30780727
H      -3.29106730     -0.87127050     -0.78196445
H      -3.57681402     -0.02228906      0.73632111
H      -3.29852808      0.89307640     -0.74440675
H       1.27325131     -0.00127925      1.64710278
H       2.80537181     -1.26568339      0.16471510
H       1.55799338     -1.25638201     -1.16256975
H       2.80535510      1.26547858      0.16669400
H       1.55797012      1.25822730     -1.16060449
