16
b3lypvtz=-147162.04990533
C       2.52384817     -0.85806935      0.15796324
C       1.68323384     -0.06864548     -0.17490345
C       0.65510319      0.89138961     -0.56371432
C      -0.49563681      1.02008447      0.45564862
C      -1.29777537     -0.26272195      0.69455834
C      -2.06170438     -0.76835237     -0.53005860
H       3.27108248     -1.55411839      0.44621349
H       1.12193259      1.87104511     -0.69757566
H       0.25886758      0.61038210     -1.54313017
H      -0.07837967      1.36474637      1.40426335
H      -1.16611468      1.80898353      0.10203822
H      -2.00692479     -0.07330183      1.50466810
H      -0.62455172     -1.04435610      1.05498337
H      -2.74037142     -0.00425905     -0.91723759
H      -2.66054487     -1.64551877     -0.28048079
H      -1.38916515     -1.05703190     -1.33953415
