14
b3lypvtz=-167322.75853189
C      -1.43212736      1.33099234     -0.06405099
C      -1.03986609      0.04592565     -0.06966475
N      -1.89867386     -1.04192555      0.05395707
N       0.28128058     -0.36297310     -0.33591256
C       1.24372785      0.20033944      0.26614132
C       2.66833770     -0.13802706     -0.02304971
H      -0.73389380      2.11997225     -0.29126914
H      -2.46942411      1.59925962      0.07803135
H      -1.46100916     -1.88258976      0.39593625
H      -2.78145955     -0.84432380      0.49576742
H       1.05883517      0.96918819      1.02622471
H       3.17584147     -0.46936219      0.88708252
H       3.20263583      0.75079292     -0.37093466
H       2.73358533     -0.91563795     -0.78096284
