15
b3lypvtz=-157236.31196758
C      -2.48893104     -0.47274170      0.09986390
N      -1.47175335      0.08586129     -0.40064487
C      -0.25648545      0.08042883      0.32981475
C       0.63643132      1.29550427      0.18579523
C       1.02989167      0.00514746     -0.46315632
C       2.19164441     -0.80677069      0.05424102
H      -2.48727592     -0.96440620      1.08006893
H      -3.42249685     -0.47548620     -0.45645634
H      -0.26433643     -0.41562479      1.30052786
H       1.17794580      1.61439737      1.06668319
H       0.26119623      2.09292633     -0.43892401
H       0.87352293     -0.03751441     -1.53354257
H       2.26715004     -0.74201562      1.14152201
H       2.08874598     -1.86123524     -0.21109021
H       3.13569365     -0.44795469     -0.36212355
