16
b3lypvtz=-147175.35488203
C       2.92714169     -0.05758396     -0.10812519
C       1.65743214     -0.35327694     -0.35502106
C       0.51464433     -0.14344164      0.60335772
C      -0.50293819      0.83009347      0.06615931
C      -1.78647368      0.60376310     -0.20853954
C      -2.55763809     -0.67120338     -0.04642297
H       3.70301259     -0.22825477     -0.84297035
H       3.23772004      0.36312998      0.84157884
H       1.38685349     -0.76707601     -1.32240578
H       0.91254243      0.23327286      1.55089244
H       0.04421441     -1.10531535      0.81897217
H      -0.11469341      1.82624248     -0.12352461
H      -2.36320307      1.43887288     -0.59583973
H      -3.39911808     -0.52888462      0.63752407
H      -2.98569895     -0.98716193     -1.00191851
H      -1.95245665     -1.49147216      0.33561220
