17
b3lypvtz=-158011.1398389
C       0.06719746      1.99617579      0.00425088
C       0.02863187      0.66543428      0.01513992
C      -1.11161734     -0.09890250      0.64294794
C      -1.91493811     -0.94860968     -0.35156908
C       1.14458714     -0.13975729     -0.61162789
N       1.71777453     -1.09250131      0.34924543
H       0.89409194      2.53668922     -0.44047575
H      -0.72812845      2.59135904      0.43578441
H      -0.70605097     -0.75898405      1.41309245
H      -1.77863167      0.60851185      1.13937838
H      -2.31984012     -0.33505111     -1.15857498
H      -2.75100713     -1.43624074      0.15214676
H      -1.30057919     -1.73220051     -0.79609867
H       1.87869131      0.55207995     -1.04311254
H       0.74169265     -0.72701645     -1.44196431
H       2.22868945     -0.59605607      1.07020059
H       2.37747364     -1.70737643     -0.11117156
