10
b3lypvtz=-189053.08412177
C       2.22909879     -0.17497393     -0.43870220
C       1.03369250     -0.16116373     -0.33649703
C      -0.39285632     -0.16664587     -0.23808908
N      -1.14213351      0.86813866     -0.37242156
O      -0.39658092      2.04425722     -0.55890142
N      -0.98942510     -1.38454588      0.07870507
H       3.28716959     -0.17258609     -0.52442334
H      -1.08783110      2.70785947     -0.64283105
H      -0.54891835     -2.18673579     -0.34476650
H      -1.99221558     -1.37360407     -0.04201498
