13
b3lypvtz=-179753.64391303
C       1.39753654     -0.27739996      0.65846392
N       1.40162003      0.17109901     -0.75205248
C       0.13988140     -0.04776753     -0.07068232
C      -0.94723576     -1.00567217     -0.53401963
O      -1.96665529     -0.02954750     -0.19023455
C      -0.97899222      0.94871181      0.21024885
H       1.76163070     -1.28579469      0.81456757
H       1.67194891      0.43092401      1.43243195
H       1.61278821      1.16244411     -0.81356772
H      -0.93207741     -1.22724654     -1.60405163
H      -1.06180910     -1.92965804      0.03781936
H      -0.99101307      1.83042188     -0.43946094
H      -1.10772294      1.25968563      1.25063762
