14
b3lypvtz=-190607.15616942
N       0.86508017      1.35408885      0.05197791
C       0.80022095     -0.01225200     -0.42229743
O       1.82552787     -0.86591573      0.10250688
C      -0.57011314     -0.62418508     -0.18287851
C      -1.81017766      0.10184058     -0.52173491
N      -1.46457954     -0.15039065      0.88852045
H       1.67270047      1.82046192     -0.34122011
H       0.98301207      1.37529480      1.05929256
H       0.99380920      0.00781760     -1.49612861
H       1.54509814     -1.18766359      0.96674784
H      -0.56745799     -1.70262152     -0.29493795
H      -1.70275551      1.11501378     -0.88828490
H      -2.66879159     -0.44499891     -0.89012933
H      -1.10111844      0.71636498      1.27358212
