12
b3lypvtz=-166547.49046267
C      -2.71597407      0.41351017      0.02473496
N      -1.76082489     -0.41796943     -0.08406868
C      -0.46084760      0.05620505      0.07072322
C       0.59315514     -0.76080188     -0.04912219
C       1.99523074     -0.34795463      0.09813917
N       2.51057480      0.80227051     -0.08041447
H      -2.56466506      1.47925375      0.23070703
H      -3.73783856      0.06563827     -0.09122615
H      -0.32607822      1.11339085      0.31206715
H       0.39966861     -1.81195074     -0.22945118
H       2.67926968     -1.14640601      0.39252714
H       1.80724645      1.47629507     -0.39145400
