13
b3lypvtz=-156462.97030225
C       3.07729560     -0.33435989     -0.00932774
C       1.96822021      0.11213597     -0.10589374
C       0.61024743      0.62994382     -0.21375156
C      -0.44904592     -0.35053624      0.33774570
C      -1.83498171      0.23275225      0.28553071
N      -2.85622107     -0.23310570     -0.29855573
H       4.06180326     -0.72197009      0.07298385
H       0.38886130      0.85309362     -1.26095447
H       0.54295274      1.58004754      0.32423699
H      -0.19977483     -0.57848644      1.37836089
H      -0.41442306     -1.28871265     -0.21912723
H      -1.96312322      1.17794941      0.82240658
H      -2.63545773     -1.11407460     -0.77035724
