12
b3lypvtz=-194870.14429032
C      -3.04119079      0.14074233      0.00000208
C      -1.66568833     -0.43918918      0.00000377
C      -0.54128600      0.27597769     -0.00000031
N       0.71219153     -0.34272314      0.00000222
C       1.73978775      0.36529794     -0.00000082
F       2.95233030     -0.20197913      0.00000042
H      -3.60629587     -0.18976294     -0.87602529
H      -3.02197543      1.23104381     -0.00000516
H      -3.60629294     -0.18975133      0.87603576
H      -1.57158698     -1.51974666      0.00000913
H      -0.57955638      1.36651333     -0.00000520
H       1.81636513      1.45265628     -0.00000762
