15
b3lypvtz=-185559.96320899
C       0.34101454      1.68833464     -0.18084582
C      -0.06621937      0.45430087      0.10315066
C       0.83210776     -0.75283837      0.20402549
C       2.31267341     -0.52158554     -0.07886167
C      -1.51823313      0.19330848      0.38172355
F      -2.02001418     -0.79194540     -0.48196420
H      -0.36334698      2.50752707     -0.25118650
H       1.38115165      1.93018669     -0.34911559
H       0.44056512     -1.51557620     -0.47530052
H       0.71165472     -1.18110360      1.20653477
H       2.75053100      0.19191738      0.62126101
H       2.47153372     -0.14072319     -1.08894249
H       2.86575482     -1.45689990      0.01259314
H      -2.11954314      1.09190006      0.24250369
H      -1.66244394     -0.18425199      1.39864950
