15
b3lypvtz=-157206.76372617
C       1.68040957     -0.59515433      0.46605277
C       0.28858302     -0.14839943      0.13325771
C      -0.18025073      1.15588915     -0.57954551
C      -1.44424798      0.39187950     -0.11804768
C      -0.81213582     -0.90877687     -0.65765577
N      -0.77733960      0.06901090      1.21015705
H       2.19562165      0.14898836      1.07740595
H       2.26415692     -0.74640754     -0.44407537
H       1.65595070     -1.53456475      1.02045345
H       0.00411226      1.24784683     -1.65248338
H       0.03358427      2.08765977     -0.05243793
H      -2.48444487      0.70601875     -0.17217793
H      -1.16614169     -1.82933491     -0.19907544
H      -0.68069013     -0.98796647     -1.73545277
H      -0.57716757      0.94331103      1.70362483
