10
b3lypvtz=-189077.5979739
C      -1.43264366     -0.15123447      0.04187400
C       0.05897544     -0.21430945      0.00056611
C       1.00773863      0.84784088     -0.03690415
N       2.20978688      0.35617319     -0.06582639
O       2.04750568     -1.00038534     -0.04756873
N       0.71977469     -1.33816136     -0.00679154
H      -1.77348128      0.88256486      0.04177402
H      -1.81577585     -0.63923699      0.93795032
H      -1.86518438     -0.65569412     -0.82204865
H       0.84330385      1.91244283     -0.04302499
