9
b3lypvtz=-227504.52003652
N      -1.97656932     -0.75568882      0.00070870
C      -0.82641260     -0.06955743      0.00005150
F      -1.07570775      1.26291198     -0.00014309
N       0.32971192     -0.58921535     -0.00003668
C       1.47317445      0.20952125      0.00029512
O       2.58547119     -0.25047566     -0.00029618
H      -2.85893789     -0.27804775     -0.00232150
H      -1.93733481     -1.75875632     -0.00118924
H       1.30469081      1.30025211      0.00117037
