7
b3lypvtz=-283345.9070443
O       1.67686894      0.83618785      0.05445042
C       0.90497984     -0.06302757      0.19155761
C      -0.59770490      0.06652293     -0.13440757
F      -0.92737676     -0.84505887     -1.06907145
F      -0.92406556      1.27443144     -0.57660339
F      -1.31478732     -0.20213862      0.97325573
H       1.18198575     -1.06671715      0.56081865
