14
b3lypvtz=-169726.95348832
C       0.42467864      1.35364721      0.06065641
C      -0.87453629      1.09502622     -0.08000948
O      -1.43647445     -0.14550908     -0.11245620
C      -0.56348704     -1.21057974      0.28846583
C       0.82613699     -1.06780636     -0.31705261
C       1.45465142      0.25908496      0.12502181
H       0.73942872      2.38781180      0.09021303
H      -1.62498984      1.86619660     -0.19215167
H      -1.05654310     -2.12745029     -0.02998292
H      -0.50269398     -1.20982220      1.38271791
H       0.73830199     -1.09205741     -1.40576696
H       1.44134837     -1.91975051     -0.02112144
H       1.86302807      0.16827177      1.13766088
H       2.30372650      0.50443704     -0.51844860
