10
b3lypvtz=-189118.02225344
N       0.83825453     -0.08645564      0.22073638
C       0.36330018     -0.88665865     -0.80716937
C       0.59705811     -2.19133470     -1.10562037
O      -0.19169345     -2.51183956     -2.19629445
C      -0.84628353     -1.37531061     -2.47815356
N      -0.56703492     -0.38095479     -1.70265335
H       0.74761447      0.89625405      0.01154501
H       1.76345903     -0.31686647      0.54679110
H       1.21092486     -2.97233459     -0.70100218
H      -1.52959927     -1.39269904     -3.31007922
