12
b3lypvtz=-189851.19755817592
C       2.35159273      0.38194235     -0.23364488
N       1.04214567      0.28405507     -0.24040224
C       0.16566118     -0.40717165      0.50495961
C      -1.21125885     -0.23233413      0.16302076
N      -1.56959533      0.54057472     -0.79891972
O      -2.03879309     -0.96930137      0.96770684
H       2.92689458     -0.17454577      0.48778232
H       2.81984895      1.02343902     -0.95815688
H       0.53093979      0.82974967     -0.94295827
H       0.50461785     -1.04438827      1.30214121
H      -2.57193029      0.58356707     -0.94699281
H      -2.95012319     -0.81558671      0.69546408
