14
b3lypvtz=-169730.39837728
C       2.49329411      0.32108733     -0.22094891
C       1.43275371     -0.47625913     -0.22860540
C       0.29897613     -0.41729576      0.75922761
C      -1.01348635     -0.10961769      0.03194807
C      -1.42096909      1.34295802     -0.05200154
O      -1.66751551     -0.99536979     -0.46658695
H       3.27349446      0.22790491     -0.96472782
H       2.62544993      1.08866213      0.53272932
H       1.33523020     -1.23514812     -0.99830148
H       0.50553687      0.33386744      1.52331018
H       0.17430247     -1.39044904      1.23869261
H      -0.58805189      1.95417459     -0.40568130
H      -1.68142071      1.70663335      0.94584751
H      -2.27726432      1.45484377     -0.71229389
