11
b3lypvtz=-202351.67906753
N       2.34871655     -0.03969040     -0.02808365
C       1.14083388     -0.66482459      0.00517118
C      -0.04625591     -0.01608474     -0.00306164
O      -0.08786475      1.35098623      0.00055462
C      -1.30594723     -0.70555457     -0.00460539
O      -2.36905420     -0.09664083      0.00269581
H       3.17521138     -0.54660800      0.22995372
H       2.36509154      0.95483576      0.12578583
H       1.14590432     -1.74546385      0.00418163
H      -1.03430247      1.57370427      0.00788245
H      -1.26736012     -1.80880827     -0.00945157
