13
b3lypvtz=-203072.3326529
C      -1.07615551     -1.30875310      0.42072692
C      -0.80862093     -0.06182638     -0.42193089
O      -1.31135466      1.07888856      0.24725772
C       0.65130613      0.07056138     -0.75599982
N       1.25637060      1.14148317     -0.45986457
O       2.60538799      1.12300218     -0.83401337
H      -0.53868143     -1.24651911      1.36734376
H      -2.14270819     -1.37768619      0.63192144
H      -0.76816560     -2.21476594     -0.10493863
H      -1.34198343     -0.17634915     -1.37808812
H      -0.60749115      1.74081096      0.25993957
H       1.15992910     -0.75444134     -1.25240325
H       2.92226709      1.98549496     -0.54655076
