17
b3lypvtz=-158011.31224713
C      -2.86603823     -0.58871062      0.32650227
C      -1.90412251      0.29692435     -0.47667341
C      -0.58286168      0.50890573      0.20225385
C       0.59763293      0.17072157     -0.32432664
N       1.85486296      0.43459633      0.20664750
C       2.91896209     -0.53090442     -0.01621349
H      -3.82641466     -0.69374780     -0.18253484
H      -2.44668676     -1.58550734      0.47335177
H      -3.05861864     -0.16304334      1.31382174
H      -2.39120944      1.26263796     -0.65715321
H      -1.73776162     -0.14474489     -1.46316237
H      -0.60748278      0.98352097      1.18120315
H       0.63589903     -0.31713958     -1.29471886
H       1.82450882      0.78661579      1.15245983
H       3.86428458     -0.11756182      0.33465619
H       2.75570489     -1.49629714      0.48173691
H       3.01829203     -0.71917873     -1.08642239
