16
b3lypvtz=-170467.72473877
C       2.02087769     -0.27061765      0.20688648
O       0.89768447     -0.33036916     -0.65576838
C      -0.30510106      0.14653821     -0.09947210
C      -0.37029472      1.64370570      0.09057218
C      -1.51057293     -0.59770993     -0.57091574
C      -1.02082190     -0.77534549      0.85302023
H       2.84152311     -0.76086464     -0.31398877
H       2.31609136      0.75936953      0.43189375
H       1.83260350     -0.79485710      1.15009700
H      -1.35911385      1.94412322      0.43772587
H       0.35634821      1.99165689      0.82746427
H      -0.16962029      2.15189495     -0.85466286
H      -2.42329024     -0.04289734     -0.74090830
H      -1.33500625     -1.41356328     -1.25738273
H      -1.59997523     -0.34472411      1.65897203
H      -0.53941887     -1.71360679      1.09103607
