11
b3lypvtz=-202327.76566667
C      -0.48225367      1.25106011     -0.00145421
C      -0.17232612     -0.07084058     -0.71701958
C       0.67615067     -0.35042508      0.51224312
N       1.32018545     -1.34469377      0.90898583
O       0.44915514      0.88534771      1.07886361
O      -1.29306986     -0.89622095     -0.91728133
H      -0.16828653      2.17051774     -0.48958826
H      -1.50186606      1.31921708      0.37097771
H       0.42142217      0.04556042     -1.62868075
H       1.74131436     -1.19845950      1.82554887
H      -0.99042555     -1.81106319     -0.94259501
