13
b3lypvtz=-177382.34394448
C       1.41021504      1.29962693     -0.00153508
C       1.06431676     -0.16752375     -0.00107091
N       1.90424492     -1.13138040     -0.00826346
C      -0.35403195     -0.54061370      0.00782759
N      -1.27203565      0.34897779     -0.00354260
N      -2.56398497     -0.04954143      0.07090810
H       2.49076671      1.43695677     -0.01104525
H       0.99270266      1.79253556      0.87739736
H       0.97700202      1.79715481     -0.87021433
H       2.86049934     -0.77659508     -0.01553060
H      -0.56633129     -1.61251473      0.02574295
H      -3.19208570      0.64210891     -0.30432193
H      -2.76656889     -0.99685468     -0.23539184
