10
b3lypvtz=-212444.07877656
N      -1.96900111     -0.82938106      0.00001025
C      -0.98801234      0.10690957     -0.00002147
O      -1.19730602      1.30517677      0.00006744
N       0.29706601     -0.51678323     -0.00000688
C       1.28336677      0.28043541      0.00007358
O       2.54373133     -0.15081646      0.00003107
H      -2.92714538     -0.53101787      0.00005455
H      -1.73717837     -1.80515197      0.00000732
H       1.20545434      1.36479947     -0.00006453
H       2.52160877     -1.12055664      0.00002066
