13
b3lypvtz=-177376.1668228
C      -0.03435524      1.50882361     -0.76849740
C       0.28097382      0.20987587     -0.08576625
N       1.37129322      0.13201146      0.60031892
N       1.72038594     -1.04972611      1.14991626
N      -0.56666788     -0.90110971     -0.15174602
C      -1.60025635     -0.90838722     -0.89124764
H      -0.99996290      1.90900863     -0.44796114
H       0.74087207      2.23130192     -0.52840060
H      -0.07523338      1.39646465     -1.85582701
H       0.97389997     -1.72993776      1.25031826
H       2.32489768     -0.92843221      1.94464246
H      -2.23781171     -1.78835278     -0.89083309
H      -1.89803525     -0.08154038     -1.53942526
