14
b3lypvtz=-193011.03793587
O       2.08201837      0.09067979      0.35921086
C       0.87748963     -0.26628045     -0.27076224
C      -0.18985633     -1.10101876      0.47906370
C      -1.26216986     -0.20105353     -0.19189217
C      -0.15997284      0.86799047     -0.43329791
O      -0.03951749      1.78547151      0.63915363
H       2.68250348     -0.65969640      0.32326113
H       1.06217144     -0.70347573     -1.25921536
H      -0.12935868     -0.91307371      1.54937176
H      -0.22495359     -2.17397854      0.29316996
H      -1.64471575     -0.61999018     -1.12286991
H      -2.09940515      0.11985989      0.42614941
H      -0.16325726      1.38978417     -1.39506378
H      -0.79107598      2.38488148      0.60362091
