13
b3lypvtz=-156492.52128587
C       2.14564706     -0.02468944      0.04108799
C       0.80513493      0.00380610     -0.02703629
C      -0.05316321      1.19072445     -0.02222012
C      -1.33667415      0.82932579      0.01762015
C      -1.45194605     -0.66808019      0.04599161
N      -0.06402583     -1.08609344     -0.12461139
H       2.70144599     -0.95174296      0.03715423
H       2.70377990      0.89680838      0.09729234
H       0.33540784      2.19715373     -0.04337804
H      -2.19381487      1.48542521      0.02808741
H      -1.88523159     -1.01792102      0.99419563
H      -2.09390442     -1.05075033     -0.75660281
H       0.22638439     -1.96535329      0.26679829
