15
b3lypvtz=-180544.8851606
C      -1.90293397     -0.69561348     -0.36743420
N      -1.04780117     -0.65130246      0.55647125
C      -0.06151461      0.42897993      0.62194190
C      -0.20981347      1.59118204     -0.36129536
C       1.32843461     -0.20625769      0.54710024
O       1.56768264     -0.64175555     -0.78815333
H      -2.60816053     -1.52482463     -0.38478353
H      -1.99756805      0.04210741     -1.16837483
H      -0.14518814      0.82227237      1.64122151
H       0.53724102      2.35417337     -0.13759152
H      -0.05556140      1.27035500     -1.39055383
H      -1.19341764      2.05608800     -0.28051452
H       2.07561759      0.53714266      0.85077193
H       1.36247395     -1.04548556      1.24686620
H       2.30718917     -1.25416640     -0.78638691
