13
b3lypvtz=-179782.27467284
C       2.48756235      0.85970166     -0.00004044
C       1.99093630     -0.38298407      0.00000018
N       0.67161712     -0.78262919      0.00004833
C      -0.43741135      0.06177417      0.00004732
C      -1.70451872     -0.35639926     -0.00004384
O      -2.81811101      0.44351060     -0.00001628
H       3.55716638      0.99779332     -0.00005385
H       1.87601258      1.74985485     -0.00006036
H       2.67178006     -1.22550995      0.00000960
H       0.49772450     -1.77140209     -0.00000080
H      -0.20611964      1.11813996      0.00014413
H      -1.97646025     -1.40399621     -0.00014765
H      -2.55201333      1.36939819      0.00008367
