12
b3lypvtz=-168959.67555999
C      -2.14441548      0.03325488     -0.00000085
C      -0.80896113      0.05256399      0.00000030
C       0.09781864      1.18946671     -0.00000004
C       1.35233571      0.72076299     -0.00000004
O       1.46226856     -0.63177555      0.00000022
C       0.10853049     -1.15788523      0.00000217
H      -2.70108359     -0.89434001     -0.00000091
H      -2.71738274      0.95018763     -0.00000178
H      -0.18957040      2.22735114     -0.00000050
H       2.29182962      1.25161783     -0.00000118
H      -0.00686229     -1.78051702      0.88799485
H      -0.00686339     -1.78052136     -0.88798725
