12
b3lypvtz=-189825.80376834
C       0.85914877      1.56474630     -0.13505248
C       0.14463893      0.47243703      0.13627265
N       0.72041633     -0.79007235      0.47216643
N       1.80143415     -1.04541195     -0.08102103
O      -1.20025083      0.52519702      0.30078855
C      -1.95940983     -0.60727824     -0.13260464
H       1.93514042      1.50913393     -0.15484177
H       0.36831619      2.51259189     -0.29354169
H       2.11886368     -1.94738395      0.30104031
H      -1.83999585     -0.76552521     -1.20759965
H      -2.99723933     -0.36807023      0.08356385
H      -1.66958263     -1.50971525      0.40485046
