13
b3lypvtz=-156448.74290545
C      -2.38955894     -0.12785585     -0.03259558
C      -1.19391045     -0.01405118     -0.03985147
C       0.24029881      0.14810306     -0.02270346
C       0.73818324      1.57820587     -0.00893451
C       1.05746179     -0.92871053     -0.65712566
N       1.02827525     -0.79943939      0.80291808
H      -3.44581677     -0.23103832     -0.03185476
H       0.35530205      2.10695936      0.86476026
H       1.82644918      1.58775379      0.03279243
H       0.41069323      2.11019780     -0.90323772
H       0.53341264     -1.75413712     -1.12167592
H       1.99797284     -0.65796949     -1.12164507
H       0.41245614     -1.49946601      1.20345038
