13
b3lypvtz=-177364.8227128
C       2.44862918      0.72257595     -0.11940329
N       1.99141388     -0.38294007      0.30340839
C       0.67500202     -0.74228972      0.00987318
N      -0.27590389      0.10927130     -0.04633994
N      -1.52959811     -0.32075059     -0.35291496
C      -2.59725779      0.48260773      0.21879085
H       3.45113885      1.02128326      0.17423602
H       1.87791464      1.39450732     -0.76430666
H       0.51131455     -1.81594004     -0.10318193
H      -1.66985742     -1.32234985     -0.24611905
H      -2.44556517      1.52148578     -0.06896577
H      -3.54723084      0.14188086     -0.19246257
H      -2.64390590      0.42998007      1.31324672
