11
b3lypvtz=-155719.94228928
C      -2.61852528      0.68800102     -0.00002647
C      -1.79493655     -0.61062914      0.00037354
C      -0.36051274     -0.37848753      0.00016716
C       0.82678234     -0.16844801     -0.00000577
C       2.17322088      0.06352137     -0.00018002
N       3.31304248      0.26056400     -0.00025217
H      -3.68214886      0.45092507      0.00015971
H      -2.39920330      1.28794632      0.88215992
H      -2.39936669      1.28729798     -0.88269423
H      -2.04894055     -1.21572367     -0.87454808
H      -2.04879073     -1.21509142      0.87577540
