12
b3lypvtz=-189878.13335214
C      -2.00799999     -0.93506247     -0.12827341
C      -0.95805469      0.12603293      0.07010978
N      -1.14857835      1.38312277      0.12676592
N       0.33098721     -0.41404815      0.25572574
C       1.31760578      0.22437399     -0.21232007
O       2.58054948     -0.17226024     -0.02411874
H      -2.01403245     -1.61052484      0.72881797
H      -2.99822112     -0.50000814     -0.25100032
H      -1.77085812     -1.54089765     -1.00520967
H      -2.13326503      1.60350044     -0.00707874
H       1.25398861      1.13402335     -0.80493039
H       2.55502266     -0.96615499      0.53196994
