14
b3lypvtz=-190638.29579995
C       1.39878929      1.02012229      0.62508337
C       0.66441038      0.16681854     -0.40188298
O       1.29616245     -1.11513156     -0.39510983
C      -0.83362332      0.09196848     -0.08597053
N      -1.68142106      1.00295244     -0.37114413
N      -1.22078429     -1.05734601      0.54588130
H       1.31429995      0.57380425      1.61670092
H       2.45463655      1.08561680      0.36394755
H       0.97720037      2.02355076      0.66033448
H       0.76299414      0.62717069     -1.39098516
H       0.91523468     -1.64923462     -1.09989646
H      -1.24028204      1.75879075     -0.88891721
H      -0.51199993     -1.63515686      0.96192834
H      -2.14301715     -1.06650794      0.94737532
