18
b3lypvtz=-168832.6597735
C      -2.91437901      0.40328710     -0.10469069
N      -1.74745864     -0.35709334      0.31808480
C      -0.50547932      0.08839142     -0.30069347
C       0.66660175     -0.77138249      0.16608300
N       1.93069818     -0.35752006     -0.43458746
C       2.58002002      0.76977144      0.22163948
H      -3.79462167      0.05924892      0.43929685
H      -3.09571928      0.23271444     -1.16796775
H      -2.82087570      1.49121588      0.04411296
H      -1.65912788     -0.30861819      1.32635128
H      -0.60128666     -0.01419619     -1.38425976
H      -0.29505935      1.15312582     -0.10530078
H       0.46394995     -1.80329802     -0.12383674
H       0.70786859     -0.75263231      1.27021360
H       2.56509079     -1.14363377     -0.45677627
H       2.71991424      0.63112904      1.30610371
H       3.55784033      0.93927799     -0.22991120
H       1.99563268      1.67962333      0.07918243
