12
b3lypvtz=-166569.46720614
C      -2.04514750     -0.03747641     -0.38637823
N      -0.67244048     -0.37004293     -0.71981354
C       0.39095430      0.20576707     -0.10848505
C       1.67097465     -0.23115286     -0.14884330
C       2.71801191      0.48273406      0.47441626
N       3.58796494      1.05072421      0.98209659
H      -2.11222962      1.02458000     -0.15387226
H      -2.69027290     -0.23374528     -1.24183849
H      -2.42308041     -0.60196743      0.47226058
H      -0.51972551     -1.26184720     -1.16281518
H       0.15797777      1.11500724      0.43343893
H       1.93701284     -1.14258048     -0.67011824
