15
b3lypvtz=-157229.89121534
C       2.75030035      0.06940109     -0.15580660
C       1.64943075     -0.35928769      0.05729548
C       0.29461269     -0.84127054      0.29215960
C      -0.79464715      0.07221869     -0.33553795
C      -2.18146354     -0.51417866     -0.09182701
N      -0.76215854      1.45643486      0.12983791
H       3.73023295      0.43222340     -0.34072691
H       0.11581215     -0.91417849      1.37045171
H       0.19817056     -1.85461099     -0.10978216
H      -0.61034453      0.09880876     -1.41305187
H      -2.25968655     -1.52840896     -0.48592641
H      -2.40295448     -0.55372574      0.97861181
H      -2.93980131      0.10553175     -0.56831685
H       0.15899618      1.85489203     -0.01423751
H      -0.94674455      1.49775351      1.12727576
