13
b3lypvtz=-179797.84321426
N       2.09985095     -0.00130217      0.08244208
C       0.72657463      0.12015948      0.00419752
C      -0.08834257      1.18046430      0.05250160
C      -1.51287899      0.69858427     -0.08170963
C      -1.32489555     -0.82290038      0.08544671
O       0.09007731     -1.08593000     -0.10116114
H       2.44822531     -0.85218823     -0.33272015
H       2.60764259      0.81227645     -0.22535002
H       0.22109778      2.21016068      0.11057381
H      -2.18621080      1.09284892      0.68269526
H      -1.95210517      0.95054022     -1.05404198
H      -1.58946598     -1.15207329      1.09261357
H      -1.86835251     -1.42395923     -0.64055365
