15
b3lypvtz=-157219.25021716
C      -1.86247376     -0.40811260     -0.03432816
C      -1.30242995      0.92398395     -0.44233067
C      -0.51245691      0.01911340      0.47706715
C       0.73162573     -0.67719354     -0.00472775
C       2.06363201     -0.25039955      0.48514169
N       1.68333214     -0.00812672     -0.91403146
H      -2.69137072     -0.43200961      0.65923509
H      -1.88310240     -1.18972149     -0.78220316
H      -1.74163138      1.81928957     -0.02474149
H      -0.95830353      1.02796022     -1.46257560
H      -0.48835993      0.32455998      1.51630766
H       0.60661604     -1.72811534     -0.24328829
H       2.85354512     -0.97725112      0.62942865
H       2.09583903      0.59365363      1.16505361
H       1.40553852      0.96236922     -1.02400725
