14
b3lypvtz=-167301.42159708
C      -1.25958731     -1.35601410     -0.12693862
C      -0.82116985     -0.11337326      0.10624936
N      -1.60197121      1.03068723     -0.06724680
C       0.57619419      0.19478928      0.52985005
C       1.73753148     -0.57960927      0.05082321
N       1.52467042      0.79502569     -0.43567510
H      -2.27974004     -1.55001335     -0.43322083
H      -0.60370188     -2.20377895     -0.01393714
H      -2.59951211      0.88820936     -0.05272525
H      -1.31865371      1.83541204      0.46879693
H       0.64708787      0.65392596      1.51305774
H       1.55442483     -1.39917619     -0.63150330
H       2.59763462     -0.70548147      0.69641114
H       1.11057369      0.76130004     -1.36278837
