14
b3lypvtz=-193029.07814299
C       2.34702227     -0.09411255      0.52675330
C       1.29727989     -0.48688880     -0.52103052
C      -0.06923805      0.02973750     -0.21082601
O      -0.14765414      1.39483108     -0.17528079
C      -1.14200460     -0.73214199      0.00432703
O      -2.37690458     -0.11495171      0.19277340
H       2.40534516      0.98870830      0.63087810
H       3.33294321     -0.46219020      0.23950916
H       2.09880526     -0.51439790      1.50271649
H       1.60134373     -0.09788638     -1.49815133
H       1.24567158     -1.57277121     -0.61503069
H      -1.06493332      1.62184833      0.03153726
H      -1.11767185     -1.81151289     -0.04207890
H      -2.83484657     -0.52982557      0.92961652
