11
b3lypvtz=-176619.95224417
C       2.42111649     -0.43524894      0.07335001
N       0.99562508     -0.29694902     -0.14279863
N       0.45457791      0.89476766     -0.01290736
C      -0.83131657      1.04149559      0.04073952
C      -1.73767467     -0.05686282      0.01048589
N      -2.40909604     -0.99746794     -0.01322741
H       2.92599878      0.42247056     -0.36518357
H       2.67953747     -0.49149884      1.13541720
H       2.76731307     -1.34138527     -0.42183590
H       0.40732299     -1.11895200     -0.04045200
H      -1.21887250      2.04608301      0.10826025
