10
b3lypvtz=-186653.85680016
C      -2.31226940     -0.70827899     -0.00024958
N      -1.89115704      0.49220207      0.00018220
C      -0.50146161      0.71786706      0.00009579
N       0.37442428     -0.20994384      0.00036629
N       1.67151541      0.35212593      0.00003035
N       2.52626133     -0.53969994      0.00003892
H      -3.38633862     -0.87291080      0.00026610
H      -1.65353260     -1.57790447     -0.00053016
H      -0.21400464      1.76716599     -0.00035802
H       3.42868590     -0.04773302     -0.00004689
