17
b3lypvtz=-158001.58829757
C       1.93380457     -0.78146011     -0.20359765
C       0.65378932     -0.29454385      0.45673352
C       0.46373080      1.24397303      0.47427083
N      -0.49271742      1.12601583     -0.65172449
C      -0.61830741     -0.34097920     -0.43921604
C      -1.89205745     -0.79927542      0.25495176
H       2.80657415     -0.55688993      0.41376042
H       1.90943316     -1.86210374     -0.36247528
H       2.07652433     -0.30186381     -1.17398332
H       0.52296896     -0.77525587      1.42717602
H       0.03045016      1.61502423      1.40856136
H       1.34890031      1.84197441      0.24308202
H      -1.35417104      1.64840829     -0.54846737
H      -0.49078395     -0.90344833     -1.36999858
H      -2.76720620     -0.60551077     -0.37032556
H      -1.86122973     -1.87325045      0.45538698
H      -2.03433055     -0.28195329      1.20699037
