10
b3lypvtz=-215000.03332873
N       1.84436583      0.02807499     -0.82792913
N       0.67088244     -0.39012065     -0.33465355
C      -0.18401192      0.46651471      0.07509697
C      -1.49396244      0.00133839      0.55037876
N      -1.99722501     -1.14156076      0.61062037
F      -2.22687261      1.05223675      0.98560652
H       2.16686129      0.95591073     -0.57308501
H       2.55030340     -0.68856081     -0.82419588
H       0.00449132      1.54082811      0.08988548
H      -1.33483229     -1.82466145      0.24837546
