9
b3lypvtz=-222439.99167508
N       1.85971494      0.14218603     -0.42151534
N       1.29476199     -0.98069292      0.02661444
N       0.12514786     -1.05872027      0.36702701
O      -0.56630124      0.26799516      0.14074195
C      -1.88622661      0.23388406      0.44693713
O      -2.52355352     -0.69222923      0.83792365
H       1.25008835      0.87000668     -0.76634369
H       2.72861752     -0.02791162     -0.89673008
H      -2.28234928      1.24568210      0.26544493
