14
b3lypvtz=-190614.60060923
C      -2.61568484      0.44210349     -0.01833274
C      -1.40960439     -0.39057731      0.38989170
N      -0.23643671     -0.02246986     -0.41671791
N       0.84682680     -0.96710183     -0.15663036
C       1.92050152     -0.32703435      0.09771404
O       2.06010100      1.00041182      0.12373572
H      -2.88811197      0.26139425     -1.06108222
H      -3.47939885      0.18588722      0.59588603
H      -2.41608466      1.50800110      0.09862247
H      -1.62325581     -1.46116122      0.29328685
H      -1.15970376     -0.20815303      1.43621030
H      -0.47708559     -0.16967859     -1.39341663
H       2.82865138     -0.87379759      0.32110496
H       1.15035588      1.31914389     -0.07675421
