16
b3lypvtz=-147160.56314086
C       1.92918772     -0.41454496      0.24894009
C       0.51148918     -0.07667448     -0.10569861
C      -0.56117182     -1.10938059     -0.48220071
C      -1.62591309     -0.27464121      0.29761800
C      -0.53970500      0.74128438      0.65169728
C       0.08964771      1.27435023     -0.60520172
H       1.97443724     -1.22630853      0.97946048
H       2.49149823     -0.73280803     -0.63397530
H       2.44694293      0.44741607      0.67438699
H      -0.72936642     -1.25703976     -1.55142449
H      -0.38704972     -2.08134146     -0.02073306
H      -2.01457242     -0.81020535      1.16235133
H      -2.46850872      0.11136801     -0.28035914
H      -0.44483263      1.26194018      1.59531048
H      -0.50191987      1.37418168     -1.51054076
H       0.81499466      2.06522180     -0.46124787
