9
b3lypvtz=-229885.31212753
O       2.17938062      0.89540457     -0.07598432
C       1.67946521      0.35078760     -1.01447053
O       0.41475783     -0.13533007     -1.07422438
C      -0.38208040      0.00629434      0.04891710
C      -1.61632042     -0.46390306      0.00397909
F      -2.42771185     -0.35034480      1.06802150
H       2.16462030      0.15720788     -1.97689680
H       0.05674614      0.49738973      0.90311866
H      -2.06895743     -0.95760618     -0.84376032
