12
b3lypvtz=-166534.09681889
C       3.04687646      0.04748874     -0.01338805
C       1.86536612     -0.15344175      0.00157188
C       0.43239585     -0.44154289      0.02068380
N      -0.37415118      0.77378492     -0.00448998
C      -1.63677226      0.63245139     -0.01247165
N      -2.37250433     -0.52928713      0.03487446
H       4.08964637      0.24293035     -0.02606570
H       0.21222321     -1.03878018      0.91740341
H       0.20608114     -1.08935154     -0.84064648
H      -2.25135261      1.53060456     -0.01817037
H      -3.35091642     -0.47795875     -0.18865829
H      -1.93164335     -1.40973271     -0.16800704
