12
b3lypvtz=-166550.95546959
C      -1.30051081      0.43321221     -0.31760263
C      -0.27945137     -0.64592023     -0.51747668
N       1.06640334     -0.17097796     -0.73408822
C       1.45590101      0.47257898      0.42765411
N       0.58542448      0.54758677      1.36380936
C      -0.59711107     -0.12739238      0.89648630
H      -1.05363893      1.43829323     -0.63439295
H      -2.33641629      0.14973922     -0.44316105
H      -0.53989051     -1.61583480     -0.91538420
H       1.72548140     -0.72320032     -1.25765980
H       2.44615046      0.90558851      0.49361527
H      -1.17234172     -0.66357323      1.63840049
