16
b3lypvtz=-168063.46039234
N      -2.79914190      0.00849735     -0.20535444
C      -1.47594636      0.40629566      0.27374851
C      -0.32916257     -0.57116119     -0.02783195
C       1.00489269     -0.11075234      0.50754331
C       2.27162559     -0.48407101     -0.16028351
N       1.79060340      0.90848896     -0.20847206
H      -3.06742488     -0.88545986      0.19050665
H      -2.79331921     -0.11141239     -1.21197593
H      -1.54273135      0.55952261      1.35417480
H      -1.24346484      1.38450019     -0.15426946
H      -0.25488934     -0.71915764     -1.11155837
H      -0.57452495     -1.54876206      0.40259571
H       1.03380263      0.02672570      1.58455328
H       2.20669326     -1.08623171     -1.05950652
H       3.17289715     -0.63554413      0.42054729
H       1.36939668      1.09398586     -1.11402431
