12
b3lypvtz=-192272.4956932
C       1.42326291      0.06565704     -0.65583874
C       0.06344095      0.00752133     -0.01578763
C      -0.04585912      0.43542061      1.37189610
O       0.88121067      0.83373860      2.04644563
C      -1.01069314     -0.42659239     -0.70880654
O      -2.29044517     -0.54617160     -0.30412869
H       2.13588307     -0.55569265     -0.11119446
H       1.81834033      1.08259166     -0.63731094
H       1.38876713     -0.27359094     -1.69089481
H      -1.05949002      0.38768119      1.83216269
H      -0.91437541     -0.74148996     -1.74103347
H      -2.39004220     -0.26907290      0.61449086
