12
b3lypvtz=-189883.05844182
C      -2.41439783     -0.31503237     -0.00003250
N      -0.96894586     -0.22237432      0.00001257
C      -0.28812613      0.92072587     -0.00000715
N       1.01013616      1.08886340      0.00000188
C       1.81903061     -0.01930834      0.00002531
O       1.48198971     -1.20159340      0.00004447
H      -2.84324189      0.68636670     -0.00001979
H      -2.77048910     -0.84389845      0.88557811
H      -2.77044066     -0.84385606     -0.88568856
H      -0.38374124     -1.05689076      0.00002328
H      -0.90510685      1.81896346     -0.00003058
H       2.88683408      0.24191128      0.00002594
