11
b3lypvtz=-179032.01124345
C      -2.46369108     -0.45154310     -0.00014553
O      -1.03468225     -0.41461482      0.00026436
C      -0.46907902      0.79551976     -0.00000989
C       0.85950074      0.98224826     -0.00008678
C       1.80481954     -0.07309267      0.00003645
N       2.60072958     -0.90896729      0.00013231
H      -2.86369672      0.03009318     -0.89476447
H      -2.86426629      0.03167125      0.89336826
H      -2.74057467     -1.50144179      0.00069504
H      -1.14052393      1.64878814     -0.00013788
H       1.23816910      1.99364408     -0.00024687
