16
b3lypvtz=-168086.23023876
N      -2.13950066      0.07921512     -0.03954195
C      -0.76076512     -0.00638276      0.37497730
C       0.07239235      1.21877969     -0.04818296
C       1.52896930      0.70720436     -0.07802853
C       1.39783941     -0.83879675      0.07474303
N      -0.01574770     -1.18221716     -0.13116192
H      -2.63916890     -0.76817156      0.20195111
H      -2.21183467      0.20685598     -1.04315619
H      -0.75031165     -0.08505420      1.46739755
H      -0.25101600      1.53392549     -1.04442548
H      -0.07464847      2.06667261      0.61987973
H       2.12729421      1.13266786      0.72814247
H       2.02191851      0.97275727     -1.01342162
H       1.68517790     -1.13955947      1.08522869
H       2.03029982     -1.39412083     -0.61654145
H      -0.19939031     -1.25510466     -1.12875377
