15
b3lypvtz=-180545.02926815
C      -2.62601408     -0.44575909      0.15167542
O      -1.33813259     -0.24158404     -0.39049987
C      -0.57564781      0.70814044      0.32833940
C       0.80509620      0.81085244     -0.31303356
C       1.61565393     -0.45143646     -0.17911519
N       2.79496623     -0.56911991      0.26846853
H      -3.12760413     -1.18304738     -0.47216860
H      -3.21378584      0.48079273      0.15101950
H      -2.57458315     -0.82399774      1.18006261
H      -0.48878201      0.40731063      1.38197155
H      -1.07095026      1.68855163      0.30584928
H       1.34962140      1.64981137      0.12762079
H       0.66170517      1.02916668     -1.37627419
H       1.11327065     -1.36170286     -0.51027934
H       3.16940029      0.34131857      0.54947166
