9
b3lypvtz=-227474.14914275
C      -1.46688342     -0.56367125     -0.18069612
N      -0.24171636     -0.80907475     -0.45852094
N       0.54054555      0.34816851     -0.28257729
C       1.75334976      0.16077431     -0.54354109
F       2.61253468      1.16780353     -0.42121326
O      -1.98099668      0.59806458      0.22066655
H      -2.19531191     -1.35888628     -0.26869917
H       2.21113304     -0.76616154     -0.87282316
H      -1.23265465      1.22298291      0.25942654
