9
b3lypvtz=-199176.45239599
N       2.03146290      0.06088601      0.00037312
C       0.77300972      0.02314659     -0.00012658
N      -0.11411780      1.06872515     -0.00082363
H       0.12040458      2.04331478      0.00230747
N      -1.42512064      0.65397154      0.00031796
C      -1.33715166     -0.61836276      0.00025129
O      -0.06102576     -1.10193196     -0.00037385
H       2.44322560     -0.86483701      0.00061349
H      -2.15116194     -1.32096934      0.00060973
