10
b3lypvtz=-186677.79344397556
C      -1.18930859      0.00255366      0.06414230
N      -2.23059548     -0.72081261      0.10616267
N       0.04740270     -0.49811147      0.41187571
C       1.19542255      0.28988804      0.54944365
N       2.05909774      0.31991224     -0.43045200
N       2.80764029      0.34377789     -1.27830198
H      -1.14263814      1.05114124     -0.24232662
H      -3.04756105     -0.19918534     -0.19301128
H       0.04297701     -1.44844817      0.75703108
H       1.45756297      0.85928453      1.42862425
