8
b3lypvtz=-211643.18748122
C      -1.29706462      0.34317248      0.06641194
N      -0.15057251      0.81740577     -0.29487841
C       0.67726348     -0.24647136     -0.02847328
N       0.09799079     -1.30818334      0.46235561
O      -1.25623799     -0.90140200      0.52648155
O       1.98894052     -0.20388335     -0.25437476
H      -2.25757113      0.83236540      0.03670691
H       2.19725146      0.66699641     -0.61423005
