13
b3lypvtz=-203088.62813267
C       2.12598229     -0.63607140      0.00004274
O       1.31167464      0.52343274      0.00003985
C      -0.04995170      0.33096129      0.00000999
N      -0.80657554      1.52795004      0.00001876
C      -0.68776739     -0.84416951     -0.00001335
O      -2.05123251     -0.94603779     -0.00005732
H       1.94689778     -1.24677942     -0.89082344
H       1.94687830     -1.24678770      0.89089925
H       3.15670572     -0.29032105      0.00005670
H      -0.60343136      2.09389101      0.81727337
H      -0.60337461      2.09394814     -0.81717814
H      -0.19518877     -1.80246431      0.00000067
H      -2.38105984     -0.03372306     -0.00008208
