16
b3lypvtz=-170501.85188543
C      -1.95266366      0.50501049      0.48096418
C      -0.75499989     -0.24652655     -0.06073773
O      -0.88366252     -1.17256704     -0.82922076
C       0.62362887      0.23062851      0.39932792
C       1.62421534     -0.92214212      0.47024506
C       1.10441491      1.33490837     -0.56138825
H      -2.85120442      0.22233579     -0.06186015
H      -2.07969687      0.25601053      1.53831122
H      -1.80292532      1.58481917      0.42697928
H       0.50785524      0.67596966      1.39227435
H       2.60100944     -0.55909611      0.79346033
H       1.73348752     -1.39356653     -0.50553449
H       1.29718363     -1.69003427      1.17240155
H       1.22594285      0.93390916     -1.56861293
H       2.06791166      1.72650118     -0.23255101
H       0.40480021      2.17077077     -0.61111155
