11
b3lypvtz=-204927.89612651
C       2.22603920      0.34651725      0.01439412
C       1.14858486     -0.38217482     -0.27688909
C      -0.20710696     -0.02178812      0.06844001
F      -0.35377631      1.15664281      0.74678852
N      -1.22206259     -0.72022104     -0.22473327
N      -2.45227620     -0.32215905      0.21185536
H       3.21290643      0.01597361     -0.27592989
H       2.15012065      1.28387250      0.54729887
H       1.22845199     -1.32105468     -0.80863869
H      -3.17341624     -0.70864888     -0.37554447
H      -2.55746482      0.67294042      0.37305853
