14
b3lypvtz=-193026.71567022
C       1.50652129      0.63804826      0.87801142
C       0.82436087      0.35624038     -0.23383195
O       0.72997741      1.20258829     -1.30523596
C       0.01301471     -0.88432440     -0.45430295
C      -1.48821152     -0.62976858     -0.25173557
O      -1.81114877     -0.32275393      1.09567575
H       2.05326595      1.56567123      0.99517453
H       1.55433540     -0.07594088      1.68512473
H       1.22411591      2.00965288     -1.12228106
H       0.17913980     -1.23983970     -1.47428537
H       0.33554183     -1.66145830      0.23771020
H      -1.82192981      0.16330176     -0.93013388
H      -2.04462866     -1.53492351     -0.49493129
H      -1.25415440      0.41320649      1.37514141
