12
b3lypvtz=-189837.89642184
C      -0.81792311      1.62791524      0.00004462
C       0.00390824      0.37157345     -0.00004808
C      -0.66341432     -0.95039661      0.00000819
N      -1.91826807     -1.15651377      0.00024227
N       1.27614392      0.53333383     -0.00017094
O       1.99775016     -0.66345972     -0.00022196
H      -1.46137597      1.67705528     -0.88148368
H      -1.46099671      1.67717122      0.88184496
H      -0.16122859      2.49412071     -0.00015012
H      -0.00746145     -1.81481459     -0.00016842
H      -2.44290910     -0.27979610      0.00040108
H       2.90869699     -0.35373992     -0.00033792
