12
b3lypvtz=-189854.4231765
C       2.30235371      0.35426525      0.31388534
C       1.34521711     -0.27897899     -0.35741935
C      -0.08279347     -0.02260480     -0.17584589
O      -0.42423929      0.90857258      0.72438371
N      -0.93279354     -0.69066647     -0.87618302
N      -2.28772004     -0.27159669     -0.53079833
H       3.34597806      0.12840800      0.14354212
H       2.06708180      1.11206156      1.04833573
H       1.56916899     -1.03838700     -1.09431537
H      -1.40754048      0.90890225      0.67576815
H      -2.71881068      0.01016331     -1.40649753
H      -2.77580216     -1.12003899     -0.25875558
