13
b3lypvtz=-179755.76151905
C      -1.24517283     -0.01932192      0.31961746
C      -0.43945912     -0.59067070     -0.82829420
C       0.03877563      0.64045075     -0.09980775
C       1.24590367     -0.16781178      0.36986694
N       0.72575637     -1.35881273     -0.37817999
O       0.10735927      1.94081843     -0.57415822
H      -1.32584671     -0.55801621      1.25890076
H      -2.13429497      0.52034086      0.01829576
H      -0.84260380     -0.70531401     -1.82494023
H       2.18160224      0.18595727     -0.06477783
H       1.36726898     -0.29189041      1.44991287
H       0.48122100     -2.13801983      0.22517139
H      -0.16050973      2.54229026      0.12839303
