17
b3lypvtz=-158002.54290891
N      -2.36937493     -0.41715149      0.05138045
C      -1.33369028      0.57648843     -0.24909409
C      -0.00913003      0.18259730      0.37530409
C       1.25374019      1.01107920      0.01610927
C       2.06189349     -0.31122244     -0.03606844
C       0.72223265     -1.08437904     -0.14101551
H      -3.23448148     -0.18818839     -0.42294449
H      -2.57574980     -0.42161820      1.04400707
H      -1.21493901      0.61310199     -1.33613967
H      -1.59075705      1.59802724      0.07346576
H      -0.12158872      0.13064449      1.46324967
H       1.16054883      1.46622922     -0.97223436
H       1.57661608      1.77822599      0.71971299
H       2.77926737     -0.43011086     -0.84737508
H       2.57256129     -0.50989744      0.90672172
H       0.45121024     -1.29832383     -1.17614585
H       0.61699113     -2.00099918      0.43683947
