12
b3lypvtz=-194840.48750233
C      -2.59904437     -0.46000544     -0.08616715
C      -1.46955145     -0.12860517      0.14187333
C      -0.07367569      0.23838816      0.37930584
N       0.20349788      1.59093970     -0.10920468
C       0.83568099     -0.84493942     -0.21589094
F       2.16291627     -0.50831318      0.05402802
H      -3.60548090     -0.74045052     -0.27386454
H       0.10240507      0.24488747      1.46020893
H      -0.03683823      1.66597692     -1.09141247
H       1.19638303      1.77651711     -0.02205640
H       0.63859842     -1.82145299      0.22880175
H       0.71647498     -0.89959065     -1.29974369
