13
b3lypvtz=-156465.6381525
N       2.50741784      0.01821517     -0.05780470
C       1.29274711      0.00600434     -0.41708942
C       0.06958489      0.00877097      0.45045871
C      -0.99630462      1.04209735      0.10222031
C      -1.92014901      0.14028605     -0.23146082
C      -1.03640369     -1.05126260      0.06199603
H       2.58329563      0.02848511      0.96259160
H       1.09086527     -0.00143411     -1.49270075
H       0.35578393     -0.02113300      1.50513818
H      -0.97358832      2.12349310      0.12104124
H      -2.94073177      0.21642559     -0.58218960
H      -1.34683004     -1.68851388      0.89188255
H      -0.78206723     -1.68557409     -0.78948432
