14
b3lypvtz=-167328.38464378
C       2.08700345     -0.92154730      0.00471733
C       0.89105146     -0.01338501      0.00285608
N       1.21197913      1.32545437     -0.05664134
C      -0.37184113     -0.50746429      0.00127948
C      -1.58978750      0.27305291      0.00403367
N      -2.79644297     -0.14979774      0.00023738
H       2.70404214     -0.74417737     -0.87961049
H       2.71350045     -0.73456745      0.88200400
H       1.78789049     -1.96625312      0.01624752
H       0.49364963      2.00166167      0.13686710
H       2.12346596      1.59176233      0.27512665
H      -0.48526408     -1.58451891     -0.00980588
H      -1.48256321      1.36193398      0.00916474
H      -2.81327382     -1.17267808     -0.01076825
