17
b3lypvtz=-157997.31339555
C       2.54198856     -0.01809992      0.18477324
N       1.30692012     -0.65831665     -0.25209602
C       0.11697556     -0.10617408      0.33466035
C      -0.46623041      1.23297311     -0.08569602
C      -1.16183711     -0.06606066     -0.43480025
C      -2.47555673     -0.44015364      0.20806859
H       2.67994137     -0.18769554      1.25463974
H       3.38863404     -0.47145339     -0.33148687
H       2.56941234      1.06827767      0.01467754
H       1.23992710     -0.64516957     -1.26155833
H       0.02917815     -0.34453990      1.38988367
H       0.03319675      1.76899127     -0.88245584
H      -0.91818518      1.86623444      0.66752122
H      -1.07563546     -0.36293821     -1.47556614
H      -3.31610298      0.03276916     -0.30517666
H      -2.63468605     -1.52062404      0.18769004
H      -2.50534708     -0.12025305      1.25148075
