9
b3lypvtz=-222412.02679695
N      -1.78393040      0.57395770     -1.30773320
C      -1.76363385     -0.07140194     -0.23852937
O      -0.69700617     -0.43364161      0.57466429
N       0.52645699      0.02183291      0.07130644
N       1.39312550     -0.34628049      0.85229302
O       2.61456055      0.09265003      0.37618599
H      -0.85617866      0.86829214     -1.60611742
H      -2.65856379     -0.46621019      0.23231590
H       3.22526983     -0.23919854      1.04551435
