14
b3lypvtz=-167328.3266117
C       2.52732690      0.12318325      0.13991679
C       1.40838788     -0.26634179     -0.45907583
C       0.20189871     -0.81291878      0.24852637
C      -1.08102036     -0.01025904      0.03889282
N      -2.24738296     -0.50312286     -0.12258893
N      -0.90778627      1.34895819      0.04135085
H       3.36864036      0.50549971     -0.42293729
H       2.64629461      0.06326933      1.21591332
H       1.33080389     -0.19138123     -1.53950756
H       0.00442011     -1.83357162     -0.08616430
H       0.40041607     -0.86095734      1.32353658
H      -2.21076491     -1.51739205     -0.14356754
H      -0.04748308      1.74280981      0.37608198
H      -1.73844794      1.91322242      0.09702173
