15
b3lypvtz=-180567.66537975
C      -2.53679454      0.12779516     -0.00000243
C      -1.27276319     -0.72285150     -0.00003478
C       0.01564958      0.08153854     -0.00004918
O       0.02517532      1.29170212     -0.00004354
C       1.32030913     -0.71989303     -0.00001036
N       2.55046174      0.04893507      0.00002929
H      -3.42564082     -0.50376849      0.00002337
H      -2.57312385      0.77307382     -0.87709853
H      -2.57307413      0.77307532      0.87709482
H      -1.24765736     -1.39030806     -0.86847896
H      -1.24761983     -1.39031316      0.86840444
H       1.30634140     -1.38598522     -0.86926871
H       1.30627906     -1.38597198      0.86925774
H       2.56280495      0.66641152     -0.80432560
H       2.56271153      0.66647088      0.80434044
