12
b3lypvtz=-189866.56119893
N       2.92884633     -0.26692296      0.10462378
C       1.76360314      0.20019619      0.29364085
N       0.60447445     -0.04368982     -0.40672014
C      -0.65030985      0.62865469     -0.16372508
C      -1.75149484     -0.32248993      0.28285117
O      -2.91061863     -0.18341526      0.00007076
H       2.96783853     -0.90403487     -0.69252942
H       1.60906243      0.88944712      1.12544490
H       0.67626382     -0.61358434     -1.23477663
H      -1.00541223      1.18969667     -1.03173445
H      -0.50315826      1.35051615      0.64581145
H      -1.39641688     -1.17294162      0.90218681
