8
b3lypvtz=-244950.6390884
O      -2.11204315     -0.82724891      0.00000088
C      -1.50183332      0.21507106      0.00001548
C      -0.03207601      0.31713828      0.00000752
F       0.45475204      1.56998400      0.00001489
C       0.77592292     -0.74146348     -0.00000711
F       2.09798730     -0.62596007     -0.00001624
H      -2.00913760      1.19847334      0.00000266
H       0.39695181     -1.75237723     -0.00001108
