14
b3lypvtz=-146403.39174206
C      -1.80920836      1.26446835      0.00004923
C      -1.12740563      0.11354960      0.00002657
C      -1.81032500     -1.23295783     -0.00003310
C       0.30106136      0.09357963      0.00006152
C       1.50384745      0.02328184      0.00008392
C       2.95742974     -0.03827607     -0.00001715
H      -1.30435647      2.22004807      0.00009928
H      -2.89112850      1.26995275      0.00002572
H      -1.51752965     -1.81331925     -0.87750607
H      -1.51759219     -1.81336887      0.87742801
H      -2.89396767     -1.12222156     -0.00006844
H       3.30932730     -1.07173978     -0.00101078
H       3.37156357      0.45504447      0.88211840
H       3.37149504      0.45672966     -0.88123912
