17
b3lypvtz=-158005.36444251
C       1.41722452     -1.46026108     -0.17635912
C       0.24952456     -0.73406631      0.44723349
C      -0.78700096     -0.03768546     -0.39684110
C      -2.25814535     -0.12291763     -0.06916140
C       0.15621065      0.77882924      0.44790755
N       1.18354880      1.53340249     -0.22688614
H       1.81976479     -0.89945167     -1.01812097
H       1.11657288     -2.44829902     -0.53280835
H       2.22540322     -1.60303570      0.54578766
H      -0.13832050     -1.20105694      1.34673005
H      -0.55326460     -0.00914440     -1.45560331
H      -2.42224649     -0.12480164      1.01032010
H      -2.70120380     -1.03808847     -0.46921265
H      -2.81132639      0.72268638     -0.48580612
H      -0.28243194      1.21405848      1.34519922
H       0.81896049      2.41188884     -0.57526192
H       1.94936212      1.75134590      0.39968399
