14
b3lypvtz=-167310.41614217
C      -1.59025307      0.26511894      0.29384373
C      -0.21840742      0.98603347      0.35888357
N       0.35932098     -0.12628080     -0.40306254
C      -0.85564433     -0.95285663     -0.32592197
C       1.66178136     -0.53380057     -0.42783500
N       2.70673690      0.11425477     -0.08967845
H      -2.29849993      0.73700656     -0.38245117
H      -2.07219972      0.08546673      1.25076430
H      -0.15500601      1.95635227     -0.13670871
H       0.19898213      1.07730445      1.36736933
H      -1.22685420     -1.30053030     -1.29137122
H      -0.76234006     -1.80830846      0.34928529
H       1.77831408     -1.54591769     -0.82001468
H       2.47406928      1.04615724      0.25689751
