11
b3lypvtz=-176608.74394604823
C      -0.16433183      0.26171237      0.11459656
C       0.93677230     -0.45029310     -0.18344131
N       2.23993198     -0.05941227      0.02359996
C      -1.51175798     -0.20919269     -0.12958758
N      -2.55112780      0.50268844      0.17163222
N      -3.45789154      1.14080740      0.44217913
H      -0.06504912      1.24438631      0.56271431
H       0.84130228     -1.43273470     -0.63136188
H       3.00034826     -0.65630175     -0.23057712
H       2.46010385      0.82883583      0.43234079
H      -1.72830040     -1.17049588     -0.57209506
