16
b3lypvtz=-168099.07099022
C      -1.10798070     -1.31426305      0.60344422
C      -0.62277411     -0.22302825     -0.36748001
C      -1.60358301      0.94812610     -0.42101320
C       0.79864998      0.20655267     -0.00694409
N       1.14695436      1.23923631      0.65564658
N       1.76892745     -0.69913268     -0.39193875
H      -2.09810072     -1.67130571      0.31485656
H      -0.42688096     -2.16436804      0.61878434
H      -1.17344780     -0.91863695      1.61864404
H      -0.57800536     -0.66581627     -1.36911830
H      -2.57893918      0.60503735     -0.76876770
H      -1.75140626      1.39088484      0.56630990
H      -1.25878279      1.73266044     -1.09531201
H       0.34075703      1.78751842      0.93684619
H       2.71581781     -0.37373710     -0.27499545
H       1.60323827     -1.24181407     -1.22231731
