12
b3lypvtz=-189833.53166674
C       2.72420143     -0.41099147      0.00000460
N       1.58199790      0.47591145      0.00000875
C       0.42201218     -0.03980151      0.00000356
C      -0.74839034      0.83664243      0.00000733
N      -1.97981873      0.49812894      0.00000278
O      -2.16268795     -0.88967039     -0.00000654
H       2.46055632     -1.47623565     -0.00000443
H       3.34044397     -0.19491687     -0.87562653
H       3.34043970     -0.19493069      0.87564217
H       0.25066895     -1.11886475     -0.00000451
H      -0.56707817      1.90491480      0.00001486
H      -3.12129326     -0.97284328     -0.00000903
