14
b3lypvtz=-193049.66130087
C      -0.18181144      1.36584084     -0.41009530
C      -0.24581673     -0.13492844     -0.17906027
C      -1.48989824     -0.58486862      0.56324731
O       0.88970314     -0.54682473      0.65032985
C       2.05131988     -0.78748801      0.03429627
O       2.27243041     -0.69840768     -1.14288618
H      -0.20738917      1.90145596      0.54028011
H      -1.03693593      1.68672425     -1.00723317
H       0.72660138      1.63719025     -0.94558943
H      -0.15314936     -0.65911438     -1.12981604
H      -2.37994773     -0.33176157     -0.01428244
H      -1.56022499     -0.09356908      1.53478951
H      -1.47912042     -1.66288738      0.72226385
H       2.79443921     -1.09156142      0.78385593
