13
b3lypvtz=-179791.37285112
C       1.19031316     -0.81622770      0.34365944
C       0.20838803      0.04440199     -0.43569934
C       0.00052358      1.50794384     -0.00381163
O      -1.41171246      1.23948625      0.26325250
C      -1.27057374     -0.08523404     -0.07774117
N      -2.18538825     -0.93723812     -0.01900689
H       1.06815380     -1.87029532      0.08921702
H       1.03893105     -0.71134421      1.41897699
H       2.22017125     -0.53764381      0.11420615
H       0.37091877     -0.05851321     -1.50954595
H       0.11327988      2.26891066     -0.77434787
H       0.51531486      1.80756523      0.90905755
H      -1.85821992     -1.85161155     -0.31811679
