11
b3lypvtz=-199946.10574888
C      -1.60723948      0.23700834     -0.41564246
N      -1.93966665     -0.96359167     -0.28419786
O      -0.37894287      0.84602457     -0.25704541
C       0.69483730      0.14116371      0.29065405
N       0.69777182     -0.52205566      1.36631582
N       1.78482501      0.27673795     -0.51917248
H      -2.32045733      0.99691995     -0.71796703
H      -1.17158563     -1.57014878      0.00037361
H      -0.20363482     -0.51418807      1.82912043
H       1.77297596      1.02530909     -1.18905878
H       2.67111668      0.04682057     -0.10337987
