11
b3lypvtz=-199914.65039951
N       2.27013880     -0.12717573      0.03352729
N       1.19550456     -0.77551863     -0.01417105
C       0.05239865      0.02600428     -0.02268331
N       0.15840868      1.40267030     -0.08272201
C      -1.10318047     -0.66972897     -0.00317834
O      -2.29770437     -0.01814959      0.02294424
H       3.02871053     -0.81681532      0.04244960
H       1.07225501      1.72665545      0.20163067
H      -0.61351447      1.91373909      0.31331077
H      -1.08494625     -1.74872484     -0.00142817
H      -3.01804667     -0.65335004      0.04098431
