13
b3lypvtz=-203103.03127605
N      -2.41155330      0.12510246     -0.22506977
C      -1.27902624     -0.70264838      0.14742047
C       0.02051876      0.06100888      0.03551414
O       0.06221410      1.27285058      0.06296658
C       1.30524275     -0.73324309     -0.09206454
O       2.43740781      0.08412647      0.00769248
H      -3.26358853     -0.19735886      0.21238729
H      -2.24210335      1.07974150      0.06999198
H      -1.22265617     -1.59332114     -0.48646287
H      -1.29998563     -1.07419785      1.18646569
H       1.32626652     -1.51323379      0.67863320
H       1.27119665     -1.25208231     -1.06165150
H       2.10759962      0.99611252      0.00277486
