14
b3lypvtz=-216323.36862425
O       1.33883604      1.16920662      0.47420057
C       1.00462943      0.18131784     -0.50477617
C      -0.04162212     -0.75665238      0.09199267
O      -0.54951616     -1.61143860     -0.93256385
C      -1.21408488      0.00697335      0.71268074
O      -1.63661053      1.13738012     -0.03579359
H       2.04922273      1.71835246      0.13172669
H       1.89119711     -0.39267286     -0.79882686
H       0.57404554      0.63845018     -1.39960202
H       0.41588113     -1.35444831      0.89051571
H       0.15631673     -2.19043809     -1.23612897
H      -0.94146490      0.29728471      1.73105920
H      -2.06451309     -0.67246913      0.76575533
H      -0.98231704      1.82895409      0.10956054
