13
b3lypvtz=-203078.56146881
N       0.87604216     -0.34862974      1.21239580
C       0.66521140     -0.51188567     -0.20571266
C       0.04897306      0.65892981     -0.94735951
O      -0.18779772      1.84576007     -0.25348245
C      -0.80334320     -0.53571725     -0.60931146
O      -1.70891031     -0.34315548      0.43653918
H       1.43990111     -1.09180137      1.59838941
H       1.30847074      0.54266006      1.42347878
H       1.36226454     -1.13488562     -0.75391902
H       0.35771434      0.81881692     -1.97297020
H      -1.03089601      1.72543353      0.20882828
H      -1.15936988     -1.20203718     -1.38393639
H      -1.16846024     -0.42358809      1.24706024
