11
b3lypvtz=-176628.78240688
C      -2.03230882      0.00738656      0.00001381
N      -0.58182292      0.03965393      0.00001119
C       0.25260616      1.10455818      0.00003833
C       1.50757737      0.55045904      0.00000979
N       1.38155289     -0.80206378     -0.00000783
N       0.11747923     -1.10888922      0.00001418
H      -2.39134798     -0.51168823      0.88690256
H      -2.40874170      1.02696210     -0.00004263
H      -2.39134273     -0.51178426     -0.88682042
H      -0.09947833      2.12010255      0.00004750
H       2.46930084      1.03196513     -0.00003349
