11
b3lypvtz=-176634.16362065
C      -2.01678586     -0.00000044      0.01529077
N      -0.56814601      0.00000020     -0.02754734
N       0.13821187      1.12158321     -0.01056067
C       1.40225160      0.69905212      0.01102206
C       1.40225206     -0.69905014      0.01102123
N       0.13821256     -1.12158198     -0.01056129
H      -2.37484413     -0.89243660     -0.48959439
H      -2.37484025      0.89246630     -0.48954257
H      -2.36915079     -0.00003018      1.04740848
H       2.22108351      1.39702227      0.01771673
H       2.22108443     -1.39701976      0.01771599
