13
b3lypvtz=-179802.42137278
C       1.99123466     -0.04859935     -0.35379381
C       0.70835645     -0.01253633      0.46793994
C      -0.22800527      1.17866549      0.13561020
O      -1.49073430      0.55502947     -0.22221403
C      -1.26062186     -0.77988170     -0.14762284
N      -0.12846615     -1.20607012      0.21148234
H       1.76456536     -0.05835359     -1.42139496
H       2.56499940     -0.94494141     -0.12030082
H       2.61284321      0.82381189     -0.14160009
H       0.96981635     -0.01355354      1.52901246
H      -0.40863976      1.84524715      0.97721767
H       0.11262177      1.76274434     -0.72041565
H      -2.11016687     -1.39578830     -0.41254342
