16
b3lypvtz=-147171.8294334
C      -1.16119961     -0.78198056     -0.00000537
C      -1.16120010      0.78197984      0.00000631
C       0.35851875      1.02547852      0.00000666
C       0.85048225     -0.00000687      1.05951625
C       0.35851940     -1.02547826     -0.00000719
C       0.85048132      0.00000744     -1.05951718
H      -1.64666414     -1.20181990      0.88172481
H      -1.64666344     -1.20180638     -0.88174239
H      -1.64666336      1.20180534      0.88174380
H      -1.64666571      1.20181888     -0.88172340
H       0.69864325      2.05894803      0.00001355
H       0.36926875     -0.00001343      2.03943631
H       1.93387606     -0.00000731      1.17146941
H       0.69864455     -2.05894756     -0.00001439
H       1.93387503      0.00000855     -1.17147132
H       0.36926701      0.00001367     -2.03943685
