16
b3lypvtz=-168067.33424677
C       2.23697448      0.48273956      0.22922432
C       1.19559881     -0.36150629     -0.51052286
C       0.02119642     -0.73136228      0.36655544
N      -1.26393667     -1.20167919     -0.20777251
C      -1.18769648      0.10813888      0.49019407
N      -1.30183338      1.37827386     -0.15825811
H       2.60706737     -0.04077469      1.11295885
H       3.09420356      0.69999555     -0.40968168
H       1.80904780      1.43035988      0.55886245
H       0.85613258      0.16930845     -1.40484643
H       1.65880182     -1.28360600     -0.87466067
H       0.31551608     -1.30075757      1.24407115
H      -1.25523988     -1.03888669     -1.21202187
H      -1.71344025      0.10169262      1.43775058
H      -2.26689586      1.59152498     -0.37863687
H      -0.76528839      1.43327195     -1.01346485
