16
b3lypvtz=-170471.03576113
C      -2.67453102     -0.17262298     -0.07707590
C      -1.17918956     -0.45343077      0.06694048
C      -0.34939476      0.82837715      0.14705470
C       1.15153564      0.65503258      0.12585878
C       1.86151995     -0.56453916      0.52201836
O       1.71142524     -0.22138292     -0.86080501
H      -3.24852098     -1.09932518     -0.12084318
H      -3.05284964      0.41173821      0.76492126
H      -2.88396719      0.39014182     -0.98930265
H      -0.83194242     -1.04889715     -0.77992373
H      -1.01245904     -1.05678105      0.96319786
H      -0.61543635      1.48190485     -0.69111219
H      -0.60866104      1.38515737      1.05427210
H       1.70315277      1.58817651      0.22285333
H       2.87360437     -0.49342053      0.90830383
H       1.30602202     -1.43919376      0.84094795
