9
b3lypvtz=-175869.55836184
N      -2.18302548     -0.96891803     -0.17415571
C      -1.21094422     -0.40364661      0.05975335
C       0.00003152      0.35943546      0.41101313
N       0.00018869      1.64104249     -0.29829031
C       1.21086335     -0.40390523      0.05982508
N       2.18284595     -0.96937698     -0.17401240
H       0.00000938      0.44493425      1.50815778
H      -0.82114118      2.17687130     -0.04380608
H       0.82162999      2.17668537     -0.04377383
