12
b3lypvtz=-189843.26206082
C       2.59519262      0.45675942      0.10106831
N       1.66271805     -0.40661079      0.02507716
N       0.41683548      0.00459082     -0.31242189
C      -0.65268111     -0.90092381      0.00857078
C      -1.97598323     -0.19299613      0.08577574
O      -2.11256103      1.00177286      0.00477832
H       3.59091290      0.10591708      0.33418165
H       2.43908086      1.52494736     -0.06606454
H       0.18814536      0.98447370     -0.16998614
H      -0.50524075     -1.40545792      0.97561764
H      -0.74276381     -1.70484562     -0.73333423
H      -2.84627433     -0.86072997      0.23775719
