10
b3lypvtz=-186689.98928513
C       2.01996853     -0.01612346     -0.00003503
N       0.56970160      0.02802405     -0.00001825
C      -0.27931112      1.06871880      0.00019567
N      -1.51120742      0.61798085      0.00001249
N      -1.40207118     -0.73571420     -0.00013235
N      -0.16692288     -1.10021377     -0.00006383
H       2.37371803     -0.53663514     -0.88770690
H       2.40129598      1.00185216      0.00001441
H       2.37373035     -0.53672645      0.88757837
H       0.02453511      2.10085518      0.00040743
