10
b3lypvtz=-215003.64262517
N       2.14879855     -0.84388278     -0.03704169
C       1.77927539      0.45828831      0.00044854
N       0.58335056      0.93631066      0.00944889
N      -0.37589925     -0.09125402      0.03548821
C      -1.55098617      0.34105713     -0.02927911
F      -2.57167602     -0.51959187     -0.00390829
H       3.09788118     -1.10062215      0.15871354
H       1.42576005     -1.53492263      0.07805977
H       2.58698092      1.18162216     -0.00348463
H      -1.86318621      1.37731319     -0.10845924
