10
b3lypvtz=-217409.88374567
O       2.43732628     -0.42226702     -0.02544456
C       1.15257820     -0.17603716      0.26856617
N       0.54335611      0.83159229     -0.19009455
C      -0.81161939      1.03993978      0.06681874
C      -1.80081559      0.15337130      0.00949133
F      -1.59269091     -1.15593566     -0.25828188
H       2.73151190      0.27601399     -0.63052683
H       0.74561760     -0.92864576      0.94015220
H      -1.09618320      2.06922195      0.24671854
H      -2.84539499      0.39598830      0.13434385
