15
b3lypvtz=-180481.95625152584
C      -2.55496835      0.69031784      0.66853666
C      -1.65094126     -0.23380042      0.39311565
N      -0.22903200      0.05117484      0.37752059
H      -0.05522028      0.95888034      0.85179432
H       0.27571922     -0.65594922      0.92510659
C       0.36617032     -0.15522371     -0.99915247
C       1.83562883     -0.22756415     -0.78282539
O       2.08945933     -1.35803407      0.10032931
H      -3.60758141      0.45118815      0.64076997
H      -2.28148124      1.70822512      0.91659691
H      -1.86578857     -1.24610657      0.09051923
H       0.06662227      0.68846590     -1.61936835
H       2.30277992      0.65768911     -0.28563163
H       2.33581018     -0.35559978     -1.74715790
H       2.97282304     -1.25499084      0.46984651
