16
b3lypvtz=-170482.42222174
C       2.97180877     -0.24434548     -0.00000067
C       1.47562831     -0.35476513      0.00000069
C       0.67521318      0.71065299     -0.00000363
O      -0.68203956      0.75359924     -0.00000330
C      -1.38679038     -0.48500776      0.00000042
C      -2.87001402     -0.18074318     -0.00000336
H       3.41068482     -0.72740969      0.87769474
H       3.41068369     -0.72741557     -0.87769342
H       3.29459024      0.79795247     -0.00000438
H       1.05841877     -1.35371963      0.00000543
H       1.07549468      1.71791009     -0.00000801
H      -1.10333915     -1.06551563      0.88480691
H      -1.10333609     -1.06552259     -0.88480051
H      -3.14589632      0.39450547      0.88395951
H      -3.44290949     -1.10921608     -0.00000010
H      -3.14589342      0.39449749     -0.88397233
