15
b3lypvtz=-180577.77797103
C       2.33967626      0.38742552     -0.49801095
C       1.37036678     -0.72699769     -0.10851853
C       0.29615043     -0.29514425      0.89434441
N      -0.60671214      0.73292829      0.38917415
C      -1.78155098      0.44771769     -0.22668046
O      -2.22123202     -0.66715072     -0.41692862
H       3.09516765      0.02549993     -1.19630020
H       2.86185370      0.78392187      0.37661558
H       1.82041891      1.21618576     -0.98338601
H       1.92449647     -1.55842596      0.33603096
H       0.87476927     -1.12325062     -0.99723730
H      -0.32010181     -1.15119126      1.16380812
H       0.76208932      0.08424813      1.80683471
H      -0.34497528      1.70074822      0.46677886
H      -2.31886755      1.36111310     -0.54047472
