13
b3lypvtz=-179792.83101999
C       1.46607421     -0.85266579     -0.79865726
C       0.64141485      0.04216220     -0.23856328
N       1.02442079      1.34783800      0.09582111
C      -0.73809419     -0.31888509      0.15371880
C      -1.49046850      0.39682982      0.99682057
O      -1.17027977     -1.46984497     -0.44424754
H       2.47020337     -0.57860758     -1.09415040
H       1.15584186     -1.87386402     -0.94171982
H       0.32997619      2.04780016     -0.12182506
H       1.92834492      1.60543991     -0.27020550
H      -2.50351801      0.10064645      1.23696920
H      -1.08895219      1.26231756      1.49716457
H      -2.02496354     -1.70926665     -0.07102540
