15
b3lypvtz=-180556.21790012
C      -1.41567598      1.32352156      0.02100731
C      -1.05952851      0.03079037     -0.00450131
N      -1.94384918     -1.04114727     -0.07840836
O       0.21049606     -0.45048396     -0.01378403
C       1.28965903      0.48346382      0.00357813
C       2.58309590     -0.30328225      0.01002525
H      -0.69554968      2.12175676     -0.00927278
H      -2.46144337      1.58961529      0.03519685
H      -1.59199563     -1.87585490      0.36659816
H      -2.88143763     -0.81845898      0.21438749
H       1.22451421      1.12729534     -0.87829342
H       1.20689169      1.11669306      0.89187115
H       2.65752581     -0.93303736     -0.87668687
H       2.64489521     -0.94131861      0.89197285
H       3.43353808      0.37995814      0.01976458
