11
b3lypvtz=-179022.3208782
C      -2.23581216     -0.52457157      0.07367574
C      -0.86934274     -0.14687167     -0.41777138
O      -0.41495198      1.18045521     -0.13984929
C       0.25192544      0.09613546      0.51044238
C       1.61828993     -0.16039187      0.11328999
N       2.70710456     -0.38547444     -0.18326460
H      -2.35268792     -1.60969950      0.07416113
H      -2.40619430     -0.15077348      1.08288358
H      -2.99937515     -0.10343143     -0.58206742
H      -0.60363113     -0.49137604     -1.41330404
H       0.07589745      0.01801932      1.57834992
