11
b3lypvtz=-204920.49503504
N      -2.43627591     -0.16496775      0.55627330
N      -1.20118325      0.40650763      0.66962554
C      -0.23062714     -0.11596311      0.02034709
C       1.11090780      0.40235002      0.16100242
C       2.14914112     -0.10315242     -0.49671350
F       3.38966081      0.39749263     -0.35259376
H      -3.15847228      0.50782862      0.76039591
H      -2.61101826     -0.66635087     -0.31115085
H      -0.38866386     -0.96707950     -0.65202017
H       1.25612355      1.23771547      0.83411345
H       2.12040743     -0.93428073     -1.18907941
