16
b3lypvtz=-147126.55654504
C       1.60988200      0.00000051      0.00000007
C       0.65747562      1.27304794     -0.13819935
C      -0.63311912      0.65934404      0.37959063
C      -1.93917028     -0.00000035     -0.00000036
C      -0.63311872     -0.65934417     -0.37959104
C       0.65747623     -1.27304741      0.13819921
H       2.26075566     -0.09360984     -0.87073801
H       2.26075534      0.09361120      0.87073835
H       0.58930451      1.59924929     -1.17582337
H       1.02195958      2.11285287      0.45629447
H      -0.48843004      0.44712210      1.43871871
H      -2.53261303      0.30318690     -0.85439310
H      -2.53261308     -0.30318797      0.85439221
H      -0.48842948     -0.44712212     -1.43871908
H       1.02196075     -2.11285213     -0.45629455
H       0.58930505     -1.59924883      1.17582321
