9
b3lypvtz=-227509.88325959
N       1.21970225      1.27088821     -0.00004289
C       0.73317797      0.11934029     -0.00001964
F       1.45969610     -1.00356008      0.00007010
C      -0.76545091     -0.16450304     -0.00009797
N      -1.50561352      0.96556490      0.00006001
O      -1.19554802     -1.29660730     -0.00003926
H       2.23833735      1.26968175      0.00004393
H      -1.05426650      1.86406758      0.00011254
H      -2.50751872      0.89020470      0.00019419
