13
b3lypvtz=-179801.54460399
C       2.07559175     -0.78743404     -0.29602738
C       0.99676720      0.17593247      0.13541962
O       1.15396864      1.37395789      0.12885338
C      -0.32567889     -0.43568948      0.60380085
C      -1.52645230      0.27495424      0.02452396
N      -2.56515138     -0.25675764     -0.46282053
H       2.98241466     -0.24529743     -0.55203069
H       1.73252004     -1.36422469     -1.15932712
H       2.28171650     -1.50615519      0.50137994
H      -0.34204447     -0.30751827      1.69301913
H      -0.37361089     -1.50625420      0.39873879
H      -1.46291285      1.36288277      0.03725800
H      -2.51337601     -1.27775843     -0.42709996
