13
b3lypvtz=-203088.06959276
C      -2.40415313     -0.04395231      0.39520276
O      -1.34337397      0.10875389     -0.53999692
C      -0.22247587     -0.64938683     -0.24178240
C       0.94733091     -0.04060875     -0.00432306
N       1.11902704      1.32784141      0.11155131
O       2.12705600     -0.70480924      0.18287129
H      -2.75004478     -1.08288915      0.43222593
H      -2.09473522      0.25886831      1.40031436
H      -3.22275636      0.58973970      0.05649877
H      -0.33314349     -1.72867974     -0.23442736
H       1.99683891      1.65230028     -0.26756987
H       0.32836758      1.84180387     -0.24745349
H       1.98414138     -1.64280143      0.02024168
