15
b3lypvtz=-157245.63044562
C      -2.86661654     -0.09588377     -0.17925507
C      -1.57782935     -0.38969583     -0.29650400
C      -0.50515418      0.00631107      0.68511683
C       0.55076256      0.88262138      0.06308574
C       1.79880131      0.51900779     -0.25004382
N       2.37682471     -0.74238683     -0.12293462
H      -3.58848316     -0.39672977     -0.92732582
H      -3.24686317      0.45889189      0.67115585
H      -1.23286554     -0.93723820     -1.16893192
H      -0.97048431      0.52401933      1.52916437
H      -0.05239847     -0.90186811      1.09914728
H       0.25094214      1.89150449     -0.18893225
H       2.45780033      1.24494815     -0.71188053
H       1.90632685     -1.38244379      0.49797615
H       3.37224683     -0.73900779      0.03176179
