12
b3lypvtz=-189829.54147832
C      -2.20960946      0.43042144     -0.22429007
C      -0.87251277     -0.17663886      0.03654036
C       0.28843297      0.46909365     -0.07353148
N       1.49002734     -0.20219758      0.19650767
N       2.49655319      0.50158135      0.05942069
O       3.64441214     -0.19267772      0.33298009
H      -2.73580258     -0.11165090     -1.01496761
H      -2.84340625      0.37307563      0.66503477
H      -2.13050811      1.47614462     -0.52087607
H      -0.84138831     -1.21841013      0.33743336
H       0.35731593      1.51206455     -0.36809490
H       3.35638591     -1.09550604      0.57364318
