9
b3lypvtz=-175853.71978427
C      -2.01262995      0.03642571     -0.00001754
C      -0.67624104      0.04523340      0.00005993
N       0.15805036      1.16554086      0.00004011
C       1.32701363      0.63444111      0.00019143
N       1.31373313     -0.80348259      0.00000664
N       0.09892320     -1.15165756     -0.00000946
H      -2.57089059      0.96104332     -0.00000846
H      -2.54051484     -0.90602635     -0.00009130
H       2.26233710      1.17363009     -0.00024034
