13
b3lypvtz=-156462.65855554308
C      -2.02006854      0.47922556      0.06295752
C      -0.69174250      0.25281765      0.02076359
C      -0.01718931     -1.13588065      0.01246129
C       1.45012192     -0.81323997     -0.04063423
N       1.54734940      0.51079456     -0.05746384
C       0.38078750      1.20000997     -0.02506804
H      -2.73161307     -0.33368145      0.09515473
H      -2.41822238      1.48456224      0.06595682
H      -0.27866697     -1.71314260      0.90437352
H      -0.33817890     -1.73158592     -0.84729364
H       2.30994502     -1.45534056     -0.06319430
H       2.43982102      0.98169500     -0.09245895
H       0.36765681      2.27376616     -0.03555447
