14
b3lypvtz=-167300.43387834
C      -2.24901825     -0.23594098     -0.16545985
C      -1.00218994     -0.20954548      0.73157315
C       0.15922780      0.46594608      0.08064574
C       1.34178660     -0.10012164     -0.16711837
N       2.34551559      0.65452653     -0.79757803
N       3.40501779      0.01833500     -0.97428537
H      -3.08805598     -0.69953841      0.35462928
H      -2.54902718      0.77334391     -0.45279726
H      -2.06097998     -0.80116620     -1.07901421
H      -1.24739350      0.32657175      1.65503814
H      -0.72779260     -1.22560597      1.02197451
H       0.02997188      1.49868701     -0.22928711
H       1.58366827     -1.12795327      0.09372680
H       4.05926950      0.66246167     -1.43817089
