12
b3lypvtz=-187442.84928596
C       2.14441708     -0.53548130      0.00557569
N       1.21524201      0.57352983      0.03302704
C      -0.04379548      0.40986531     -0.01753420
N      -0.91785463      1.46270671     -0.06841971
N      -0.62740959     -0.91661021     -0.06129262
N      -1.86119212     -0.92257620      0.05962902
H       2.71416274     -0.54061706      0.93880039
H       2.86784352     -0.36055026     -0.79459133
H       1.68793874     -1.51623649     -0.13297373
H      -0.53776706      2.35557335      0.19320137
H      -1.86918231      1.26258699      0.19317085
H      -2.16433691     -1.90567667      0.02781422
