14
b3lypvtz=-167314.47704463
C      -0.23801559      1.89312539      0.26139334
N      -0.69992507      0.94758994     -0.43999584
C      -0.47005678     -0.38568652     -0.04461812
N      -1.66330293     -1.11806561     -0.01381529
C       0.74443178     -0.93914386      0.12602617
C       2.08434058     -0.30360262     -0.09445422
H      -0.39281009      2.91781567     -0.06906523
H       0.31038853      1.73839723      1.19467091
H      -1.58751181     -2.00563154      0.45791415
H      -2.45967883     -0.58784269      0.30622617
H       0.75553142     -2.00298825      0.34263004
H       2.00504176      0.68842341     -0.53779877
H       2.69468281     -0.91516542     -0.76522371
H       2.65319121     -0.20158512      0.83517641
