14
b3lypvtz=-169690.44971228
C      -2.58359810     -0.96082498      0.10868727
C      -1.80112451     -0.06386442     -0.03746618
C      -0.85597254      1.03546536     -0.19664174
C       0.53307347      0.74347867      0.36859660
O       1.14899092     -0.24707736     -0.42401157
C       2.41815146     -0.63197343      0.05814320
H      -3.27207850     -1.75883076      0.23052129
H      -1.25073174      1.92657333      0.29984393
H      -0.75263030      1.28214233     -1.25656715
H       0.45433585      0.41002462      1.41159399
H       1.12844073      1.66745535      0.35498615
H       3.11655589      0.21472893      0.07928512
H       2.80490914     -1.39173154     -0.61840594
H       2.35384924     -1.05410311      1.06873104
