12
b3lypvtz=-168933.36637816
C      -2.70184817      0.44922070     -0.01896183
C      -1.78214613      0.13343962      0.89552033
C      -0.41454048     -0.12348298      0.61340527
C       0.75199655     -0.35129686      0.41001164
C       2.16953408     -0.59078008      0.15175779
O       2.70103549      0.20095534     -0.90678600
H      -2.45503445      0.52530903     -1.06912917
H      -3.72610632      0.64003433      0.26945522
H      -2.07184442      0.06615945      1.93964298
H       2.32107314     -1.62887872     -0.15075268
H       2.73610126     -0.44097963      1.07923004
H       2.47177945      1.12029979     -0.73629643
