8
b3lypvtz=-239978.01004789
C      -0.48284594      0.41242157     -0.01162653
N       0.28584925      1.22036451      0.55357533
C      -0.02525122     -0.99274533     -0.37940687
O      -0.73363467     -1.78811256     -0.91970349
O       1.24389211     -1.22424340     -0.03019608
F      -1.74520032      0.66361563     -0.35065450
H      -0.13485974      2.12686476      0.74760561
H       1.59205053     -0.41816517      0.39040652
