15
b3lypvtz=-206461.21067531
N       2.42107615     -0.05632907     -0.35738392
C       1.25107542     -0.67107087      0.26394473
C      -0.01695293      0.02862210     -0.22481219
N      -0.00328584      1.42465202      0.22194545
C      -1.26119097     -0.73916169      0.19812744
F      -2.40188749     -0.08163680     -0.27306208
H       2.38379272      0.94442109     -0.19766542
H       3.27569947     -0.40285211      0.05990087
H       1.26117014     -0.63767026      1.36644029
H       1.21620598     -1.72639619     -0.01946190
H       0.01512406      0.04431882     -1.31724462
H      -0.12283126      1.47283937      1.22943070
H      -0.78046672      1.92905279     -0.18713670
H      -1.34575144     -0.79436018      1.28749466
H      -1.27178929     -1.75013801     -0.21574331
