11
b3lypvtz=-202340.30055746
C      -2.19917720      0.10291445      0.09398810
C      -0.94496952     -0.20180272     -0.18904610
O       0.06640424      0.71747543     -0.01788118
C       1.31456914      0.25840705      0.25420328
N       1.70080253     -0.87681935      0.64789077
O       2.16557982      1.27242927      0.04039236
H      -2.98256060     -0.60892442     -0.11639009
H      -2.46616940      1.05955190      0.51957840
H      -0.63607348     -1.14474471     -0.62327424
H       0.94235892     -1.52354750      0.82624094
H       3.03923556      0.94506059      0.29089068
