9
b3lypvtz=-229886.18589055
C      -1.55458651      0.79339936     -0.39168445
C      -0.43203367      0.39394342      0.17870949
O       0.39265214     -0.51515780     -0.42073675
C       1.57790227     -0.99712212      0.07974648
O       2.10649125     -0.72430388      1.10749857
F      -0.02461828      0.83770234      1.35989463
H      -1.83991975      0.40119482     -1.35318898
H      -2.18088375      1.51203707      0.11002670
H       1.95499629     -1.70169319     -0.67026566
