14
b3lypvtz=-167303.78278344937
C      -2.27546092      0.82424477      0.08648556
C      -1.38692941     -0.31224879     -0.29877703
N      -0.08163322     -0.19751777     -0.28844736
C       0.93423391     -1.04332588     -0.58294146
C       2.23968728     -0.50810357     -0.43639312
N       2.42788508      0.71213182     -0.04524153
H      -2.14103479      1.69757799     -0.56034769
H      -3.31854450      0.52244286      0.00997866
H      -2.10737033      1.15564121      1.11656429
H      -1.79612913     -1.26640512     -0.59883765
H       0.32016198      0.70669504     -0.00422470
H       0.71420319     -2.04724846     -0.90352397
H       3.05913208     -1.19121149     -0.67432715
H       3.41179876      0.94732738      0.01088122
