9
b3lypvtz=-201567.20379653
C      -0.35636597      0.78689805     -0.33707558
C      -1.41508880     -0.05133006     -0.27073936
O      -1.03888527     -1.27206744      0.13747849
N       0.34622205     -1.26150776      0.35954572
C       0.72277936     -0.04291680      0.07394401
O       2.00333514      0.34969527      0.17044144
H      -0.32602491      1.82108606     -0.62600810
H      -2.46479820      0.07423339     -0.47694207
H       2.52882658     -0.40409070      0.47013237
