11
b3lypvtz=-176611.30498164
C      -1.53306138     -1.07346809      0.31545099
N      -1.56910768     -0.05432692     -0.44545249
N      -0.71059635      0.98727002     -0.27056476
C       0.49922312      0.89045564      0.52652953
C       1.49447578     -0.08464648      0.04069938
N       2.27167637     -0.83334232     -0.35755955
H      -2.28428658     -1.83366147      0.14847617
H      -0.81274563     -1.23895812      1.11430142
H      -0.61165554      1.50224257     -1.13039216
H       0.96246137      1.87714479      0.53980904
H       0.24676453      0.64665538      1.56032444
