12
b3lypvtz=-192277.27430335
C      -1.69853130     -0.91908259     -0.44585425
C      -0.83180618     -0.07669502      0.09084874
C      -0.97089592      1.40279727      0.22395253
O       0.31870846     -0.62489840      0.70270737
C       1.53361499     -0.34776505      0.18486680
O       1.76175154      0.30293690     -0.79244278
H      -2.62425399     -0.55461366     -0.86532002
H      -1.50320748     -1.98095322     -0.47478610
H      -0.18195137      1.91668401     -0.32529490
H      -0.89618523      1.69741395      1.27338247
H      -1.93596300      1.72615070     -0.16103485
H       2.29215351     -0.83090689      0.81336598
