13
b3lypvtz=-179775.44264461
C       1.88822088      0.38650832     -0.31911490
C       0.71002519     -0.14414696     -0.00500632
C      -0.50031298      0.35573170      0.77697253
C      -1.28536858     -0.76372056      0.02014558
N       0.03126287     -1.31515461     -0.36608500
O      -0.88763757      1.69605532      0.63930591
H       2.18685851      1.32684964      0.12061326
H       2.57663615     -0.09900958     -0.99751739
H      -0.43621766      0.15708259      1.84605791
H      -1.91015021     -1.43868357      0.60517308
H      -1.86220532     -0.34675760     -0.81064273
H       0.19292634     -1.78651049     -1.24412364
H      -0.70403760      1.97175581     -0.26577829
