12
b3lypvtz=-189857.89277051
C      -2.17181521     -0.71452560      0.13706881
N      -1.44419143      0.26708871     -0.21685666
C      -0.07417150      0.29250769     -0.04089317
O       0.45092943      1.56033885      0.10070106
C       0.76971945     -0.75359102     -0.08361769
N       2.14506954     -0.64644237      0.09698951
H      -3.23127226     -0.69150248     -0.09788778
H      -1.78713838     -1.58980752      0.66666460
H      -0.27637228      2.17460337     -0.05423522
H       0.37957174     -1.74857426     -0.23901211
H       2.70058313     -1.23927481     -0.50141915
H       2.47856077      0.30670444      0.09768980
