13
b3lypvtz=-208085.22290833
F      -1.88225346      0.93773748     -0.08641539
C      -1.72955643     -0.42688978      0.17363945
C      -0.37235527     -0.90466866     -0.30277814
C       0.77358093     -0.28005123      0.45160723
C       1.45592124      0.92360689     -0.02291047
O       2.06388402     -0.36760162     -0.15756687
H      -2.53417768     -0.95129028     -0.34431553
H      -1.85277438     -0.56684183      1.25059577
H      -0.26270388     -0.69774076     -1.36904343
H      -0.33558277     -1.99234675     -0.18136356
H       0.78078240     -0.47107087      1.52341426
H       1.13155385      1.38372600     -0.95026388
H       1.93511844      1.58868340      0.68780458
