14
b3lypvtz=-167317.32084227
N      -2.41027040     -0.92505635     -0.18733500
C      -1.62571637     -0.15702781      0.44449657
C      -0.86231884      1.02866067     -0.08194450
C       0.63692222      0.86057287     -0.01435810
C       1.26826267     -0.31674933     -0.03975129
N       2.64343474     -0.51270933     -0.09756491
H      -2.48306377     -0.63603589     -1.16652085
H      -1.46209880     -0.37655108      1.50304552
H      -1.19709504      1.24924087     -1.10285948
H      -1.14196909      1.89823091      0.52430177
H       1.22330118      1.77366690      0.02245359
H       0.69994951     -1.23961169     -0.08243525
H       2.97560871     -1.35749704      0.33931308
H       3.20689926      0.28612633      0.15161985
