13
b3lypvtz=-179765.8510619
C       1.31982554      1.40189844      0.00000061
C       1.01514395      0.10238584      0.00000120
C       2.06788825     -0.97500648      0.00000257
C      -0.37319624     -0.39094492      0.00000007
N      -1.37772047      0.39111041      0.00000494
O      -2.58033977     -0.32404952      0.00000135
H       0.54965559      2.16013150     -0.00000068
H       2.34985275      1.73214168      0.00000175
H       1.97133212     -1.61987169      0.87781479
H       1.97133245     -1.61987353     -0.87780833
H       3.06915874     -0.54786979      0.00000229
H      -0.53511715     -1.46901572     -0.00000575
H      -3.24383676      0.37345277      0.00000620
