14
b3lypvtz=-169719.39091357
C       0.85695668      1.40202301      0.38407924
C       0.42376512      0.21359902     -0.03727375
C       1.35795601     -0.82634382     -0.60766425
C      -1.01340812     -0.14546028      0.04282812
C      -1.77332318      0.02220571      1.12454643
O      -1.55551330     -0.75398765     -1.06731974
H       0.17231754      2.14903115      0.76077510
H       1.90916484      1.65607101      0.36385884
H       1.14236788     -1.04817856     -1.65673407
H       1.26651008     -1.77046342     -0.06609982
H       2.39157980     -0.48873791     -0.55103535
H      -2.81681357     -0.25828260      1.11302766
H      -1.34780129      0.41046117      2.03543282
H      -1.01385848     -0.56193683     -1.83832123
