13
b3lypvtz=-208083.66973453
F       2.28188463      0.32133144      0.00412674
C       1.23630108     -0.55860626     -0.28328296
C       0.02307192     -0.19994792      0.53771075
C      -0.71908364      1.07735071      0.10140608
O      -1.82343282      0.30319379     -0.42807300
C      -1.27128940     -0.91960410      0.10623005
H       1.58497691     -1.56999950     -0.05993617
H       1.02560835     -0.48192647     -1.35318701
H       0.26165872     -0.26023813      1.59838856
H      -1.03963225      1.72613076      0.92020899
H      -0.23237758      1.67969947     -0.66832663
H      -1.16768897     -1.69149596     -0.66169321
H      -1.87383795     -1.31331083      0.92899782
