13
b3lypvtz=-177379.73477891
N       3.03816857     -0.09103411      0.07642377
C       1.74298949      0.38659711     -0.00644362
C       0.62083593     -0.35386123     -0.00363660
C      -0.69762042      0.22725082     -0.00489871
N      -1.75538990     -0.49205008     -0.00123739
N      -2.97233691      0.15979887     -0.08615187
H       3.16585998     -1.07036858     -0.12572454
H       3.75300458      0.48781721     -0.33202435
H       1.67483000      1.46915422     -0.01705760
H       0.67376550     -1.43721016      0.00326593
H      -0.76380464      1.32364965     -0.01669706
H      -2.96950931      1.09596580      0.31493381
H      -3.68396486     -0.40811853      0.34952821
