14
b3lypvtz=-167306.40749243
C      -1.25870782     -0.61071646     -0.03406724
C      -0.90638924      0.59078372      0.79246760
C       0.05105746      0.11834416     -0.26787224
C       1.31578351     -0.58994895      0.11217424
N       1.78562750     -0.87206345      1.25394786
N       0.09631803      0.91954917     -1.47077793
H      -1.21178405     -1.58339306      0.43518545
H      -2.01057785     -0.49534100     -0.80180107
H      -1.42095573      1.51637169      0.58221969
H      -0.64959024      0.43772654      1.83200372
H       1.90838810     -0.90176484     -0.75456026
H       1.17990509     -0.52672243      2.00180563
H       0.31931614      0.35322893     -2.28159713
H       0.80160910      1.64394597     -1.39912832
