12
b3lypvtz=-213147.72396237
N       2.40511252     -0.20533266     -1.00783806
N       1.11695298     -0.28671605     -0.46597050
C       0.42815504      0.77339274     -0.43905519
O      -0.79473081      0.84631395      0.12461183
C      -1.30629406     -0.36884961      0.70043735
O      -2.55255562     -0.10091783      1.24111320
H       2.46669169      0.45856065     -1.77690193
H       2.64997008     -1.12278029     -1.35231258
H       0.73528431      1.73665736     -0.84787559
H      -0.65290709     -0.68985597      1.51034327
H      -1.32729436     -1.13470673     -0.08052018
H      -3.16828468      0.09413444      0.52686838
