14
b3lypvtz=-167319.06583944
C      -2.83652807     -0.10747493     -0.28894724
C      -1.73842831      0.07836576      0.43116560
C      -0.38175269     -0.43693013      0.05570457
N       0.57232565      0.65505081     -0.04880667
C       1.93063882      0.46494088     -0.11610391
N       2.61194022     -0.60037008      0.03025892
H      -3.79650649      0.27356154      0.03281406
H      -2.81599970     -0.65582625     -1.22350030
H      -1.78688928      0.63590525      1.36160683
H      -0.02702120     -1.11621898      0.83770636
H      -0.44070264     -1.01919633     -0.87183345
H       0.22003175      1.52288740     -0.41708397
H       2.46612466      1.39725388     -0.29811116
H       2.02527628     -1.41949282      0.18254635
