15
b3lypvtz=-178154.2924321
C       1.84849619     -0.82345354     -0.00127402
N       1.20990518      0.48029777      0.01656654
C      -0.14827912      0.71968978      0.11291848
N      -0.72231377      1.82417936     -0.18579493
C      -1.02920615     -0.41026180      0.62179513
N      -1.44719621     -1.37533135     -0.40184082
H       2.91648493     -0.69477489      0.17139035
H       1.72236585     -1.35978361     -0.94984565
H       1.46687803     -1.45258811      0.80048131
H       1.72465848      1.21025130     -0.45135240
H      -0.06402183      2.50765492     -0.56404303
H      -0.54534616     -0.95399238      1.43428018
H      -1.92078765      0.06023043      1.02935987
H      -0.65454977     -1.87266672     -0.78883778
H      -1.89071799     -0.88114515     -1.16778723
