11
b3lypvtz=-202309.06326136
O       2.69829257      0.81998021      0.32013309
C       1.54542441      0.10639536      0.41573891
C       0.41976392      0.49954732     -0.18804769
C      -0.80064118     -0.25950748     -0.08453068
N      -1.86552090      0.13458047     -0.67015910
O      -2.92616154     -0.75867936     -0.43086658
H       3.39567469      0.38453597      0.81708553
H       1.58797438     -0.80110109      1.00950473
H       0.40824623      1.40965615     -0.77381312
H      -0.81025416     -1.17953872      0.50114660
H      -3.65279842     -0.35586884     -0.91609170
