13
b3lypvtz=-179783.82328464
C       2.19392352      0.20926671     -0.37641770
N       1.18097836     -0.70130164     -0.89112245
C      -0.00922361     -0.50505187     -0.58120811
C      -0.87176848      0.45225305      0.23167701
C      -2.02111363     -0.44333064     -0.25122940
O      -1.07564746     -1.27979398     -0.98949132
H       3.17130260     -0.10495000     -0.73801939
H       2.03147999      1.23962872     -0.71004628
H       2.22912806      0.21233354      0.71823091
H      -0.87862091      1.47919327     -0.12980300
H      -0.67579783      0.44641016      1.30253029
H      -2.53464928     -1.02227825      0.51464103
H      -2.73999133      0.01782094     -0.92644158
