10
b3lypvtz=-217409.30788023
C      -1.89925157      0.18684921     -0.08327145
C      -0.66817222     -0.28674580     -0.13751663
O       0.35498857      0.45971126     -0.69355863
C       1.60722204      0.27250225     -0.22810115
N       2.05847382     -0.29537368      0.78764388
F       2.42732932      0.85326030     -1.09229451
H      -2.13638914      1.18632676     -0.41839167
H      -2.69576051     -0.43834165      0.29020868
H      -0.38323954     -1.28314899      0.17638840
H       1.33469924     -0.65503965      1.39879307
