15
b3lypvtz=-180556.73519383
C      -2.35023879     -0.64942020      0.07489454
C      -1.37857910      0.49134615      0.10363332
C      -0.05876837      0.43219173     -0.07932282
O       0.69229364      1.57481847     -0.07894740
C       0.76452692     -0.80817120     -0.35083947
N       2.08663847     -0.66056168      0.28351992
H      -3.04295034     -0.56251165     -0.76838641
H      -1.86503868     -1.62149202     -0.00910389
H      -2.96489780     -0.66502220      0.97948733
H      -1.79472859      1.48024730      0.26298164
H       1.61332616      1.27581099      0.02510249
H       0.22718156     -1.70583683     -0.04150414
H       0.93566921     -0.88569948     -1.42855103
H       2.04387692     -0.88340837      1.27081519
H       2.76845779     -1.27476502     -0.14045125
