13
b3lypvtz=-177366.47995904688
C      -1.00263726      1.12477594      0.18079877
C       0.00374900      0.04965104     -0.02693341
N      -0.40033226     -1.19206342     -0.28462705
N      -1.56856288     -1.73121413     -0.40770687
C       1.43355150      0.23868904      0.02765260
N       2.25331967     -0.72974588     -0.16038859
H      -1.64580813      1.25780578     -0.69697419
H      -1.66266579      0.90887418      1.02903784
H      -0.50755485      2.07408932      0.37774590
H       0.38483540     -1.83815035     -0.40755466
H      -2.26228794     -0.99464796     -0.26523190
H       1.75423571      1.26306662      0.23992381
H       3.22015784     -0.43113018     -0.08870254
