17
b3lypvtz=-158020.53134649
C       2.15104010     -0.76073892     -0.31590176
C       1.08533683     -0.26125341      0.67230355
C      -0.00157094      0.54624267     -0.01219393
N      -0.02882612      1.81640917     -0.06470795
C      -1.12027328     -0.22397444     -0.67821854
C      -2.17791681     -0.70165386      0.32830410
H       1.71563025     -1.39736097     -1.08731169
H       2.64348167      0.07622263     -0.81252084
H       2.91372598     -1.34267530      0.20310319
H       0.64217363     -1.11914429      1.18456795
H       1.55886406      0.35817492      1.43725882
H       0.75996559      2.21992840      0.44466655
H      -1.58499217      0.43126585     -1.41391728
H      -0.71111861     -1.08789306     -1.20962262
H      -2.62778083      0.14843073      0.84212183
H      -2.97208048     -1.24848020     -0.18164504
H      -1.75254188     -1.36575289      1.08287068
