12
b3lypvtz=-168930.5889271
C       3.30239358      0.05008823     -0.71862624
C       2.15035150     -0.19875839     -0.47880302
C       0.80403010     -0.53668595     -0.18289010
C      -0.23023300      0.30187104     -0.29213296
C      -1.64549427     -0.08539778     -0.02157169
O      -2.20552052      0.85694278      0.89319846
H       4.31614471      0.28104155     -0.93107565
H       0.63084226     -1.55572538      0.15135377
H      -0.06906370      1.32687342     -0.60608217
H      -1.68840873     -1.10486145      0.37899105
H      -2.20538017     -0.07487012     -0.96681974
H      -3.15966175      0.73948205      0.90745828
