14
b3lypvtz=-167329.7291644
C      -1.33465902      1.25877481     -0.37911753
C      -0.71190082      0.13876828     -0.01893502
C      -1.46913059     -1.11313082      0.34329256
C       0.78910421      0.09626848      0.03228530
N       1.54770549      1.04530177      0.42978464
N       1.36209467     -1.07024253     -0.42721292
H      -0.78566138      2.14272875     -0.67453549
H      -2.41494740      1.31979899     -0.40070849
H      -1.13602290     -1.51905752      1.30127243
H      -2.53741105     -0.91257025      0.40947495
H      -1.33404623     -1.89810951     -0.40706382
H       0.99561685      1.84379738      0.72494915
H       0.82171596     -1.91514953     -0.43717079
H       2.34195420     -1.17497530     -0.21999397
