11
b3lypvtz=-176638.27351277
C      -2.13194523     -0.03658756      0.00001181
C      -0.64006917      0.00879000     -0.00003438
N       0.10964136     -1.09543839      0.00000747
N       1.35053895     -0.62945838      0.00000727
H       2.14607347     -1.24487513      0.00016489
N       1.48758992      0.68471841     -0.00025284
C       0.22764988      1.11506455     -0.00000088
H      -2.54616702      0.97083778     -0.00003412
H      -2.50919351     -0.55955803     -0.87983940
H      -2.50914946     -0.55945079      0.87994512
H       0.00091882      2.16749856      0.00009604
