14
b3lypvtz=-167328.48380283
C       1.62839848      0.66059139      0.11903372
C       0.58893967     -0.43297741      0.11262320
N       0.85604508     -1.67317960     -0.01908232
C      -0.85180462     -0.06565809      0.26505019
C      -1.26116400      1.21530386      0.25498467
N      -1.69039475     -1.14918647      0.43823045
H       1.47446600      1.35515785     -0.70783264
H       2.62457415      0.23081882      0.02498193
H       1.58368125      1.23925608      1.04234672
H       1.85676134     -1.83221787     -0.11933925
H      -2.30796360      1.47003339      0.35238958
H      -0.56612878      2.03119237      0.15530474
H      -2.65529289     -1.02116609      0.18661056
H      -1.28011736     -2.02796822      0.15973863
