11
b3lypvtz=-176638.19029874
C       2.19709731     -0.45258647      0.00447005
N       0.76908273     -0.68553797     -0.00649632
C      -0.14089227      0.33498394     -0.00061674
N       0.05335195      1.59591804      0.00174358
C      -1.51940259     -0.13869902      0.00035351
N      -2.59434342     -0.54791387      0.00131829
H       2.70759967     -1.41237103      0.00015199
H       2.51689672      0.10966193     -0.87701597
H       2.50757591      0.09790722      0.89693376
H       0.42572499     -1.62925409      0.00834005
H       1.04377400      1.83014233      0.00135978
