18
b3lypvtz=-147939.27097856
C       2.27465339      0.00000080     -0.08194742
C       0.79848266      0.00000077     -0.40016570
C      -0.18963525     -0.75746903      0.45093342
C      -1.30160832     -1.58060437     -0.15697401
C      -0.18963581      0.75746768      0.45093543
C      -1.30160923      1.58060381     -0.15697034
H       2.77216908     -0.88233285     -0.49225718
H       2.44215668     -0.00000044      0.99715842
H       2.77216858      0.88233569     -0.49225509
H       0.57059633      0.00000217     -1.46215434
H       0.23409910     -1.20146159      1.34610089
H      -1.67909454     -1.14136983     -1.08056049
H      -0.95078169     -2.58721517     -0.39637134
H      -2.14586556     -1.68088755      0.52976818
H       0.23409817      1.20145833      1.34610400
H      -0.95078387      2.58721634     -0.39636222
H      -1.67909260      1.14137295     -1.08055973
H      -2.14586812      1.68088229      0.52977050
