12
b3lypvtz=-215561.29541009
O       2.64495078      0.29594674      0.57619422
C       1.33754492      0.09105319      0.93355254
C       0.32640117      0.04701193      0.07045669
O       0.59290517      0.21590175     -1.26945964
C      -1.12263003     -0.17879003      0.45841677
O      -1.88395144     -0.15643441     -0.75155059
H       2.67353383      0.39609236     -0.38349285
H       1.19993057     -0.03348029      1.99671186
H      -0.24920893      0.15419518     -1.74025143
H      -1.24077562     -1.14273519      0.96324135
H      -1.46678041      0.60739967      1.13774437
H      -2.81192001     -0.29616091     -0.55016329
