8
b3lypvtz=-239980.67819307
O       1.53357341     -0.22275078      0.07663135
C       0.73895374      0.79315754     -0.00203887
F       1.38426152      1.93437742     -0.02320643
N      -0.55128434      0.81458976     -0.05931810
C      -1.16091606     -0.41643738     -0.03270103
O      -0.59570229     -1.50962354      0.03922324
H       0.90348425     -1.02515805      0.08379098
H      -2.25247023     -0.36815497     -0.08238113
