13
b3lypvtz=-156481.0110051
C       2.20970339     -0.69562968     -0.05555096
C       0.88553051     -0.74063569      0.05372355
C       0.01705288      0.46141629      0.00129827
N       0.55873913      1.62091479     -0.04486749
C      -1.45155141      0.28596443      0.00299096
C      -2.13101944     -0.85886571     -0.02466168
H       2.80612199     -1.59666877     -0.00639777
H       2.72162036      0.24712018     -0.19440414
H       0.39891235     -1.69651064      0.19287847
H      -0.15143346      2.35168257     -0.08283846
H      -2.00760900      1.21913591      0.01841422
H      -1.65140400     -1.82728775     -0.04862674
H      -3.21280831     -0.85939995     -0.03040523
