18
b3lypvtz=-168838.6058462
C      -2.89258436     -0.45129400      0.09898073
N      -1.76833020      0.40727946     -0.24469883
C      -0.48830282     -0.08888857      0.25474500
C       0.65628497      0.82962574     -0.16074785
C       2.02707848      0.38353935      0.34503728
N       2.42622280     -0.90017947     -0.24578592
H      -3.80450672     -0.06556614     -0.35820954
H      -3.03896235     -0.44545174      1.18150386
H      -2.76844685     -1.50155566     -0.21095194
H      -1.71665157      0.50586989     -1.25210436
H      -0.54669007     -0.11541888      1.34830805
H      -0.27240537     -1.11646640     -0.07042003
H       0.44973040      1.83905643      0.20285035
H       0.68810263      0.89890923     -1.25542494
H       2.75002824      1.19028982      0.15999402
H       1.98339627      0.24800668      1.42911676
H       3.28461207     -1.23489058      0.17495478
H       2.61624246     -0.78517617     -1.23526543
