8
b3lypvtz=-239927.45644768
C      -1.42602798      0.41591784      0.23175788
O      -2.50542370     -0.11407626      0.26486906
C      -0.17959969     -0.30545799     -0.11666829
N       0.91428905      0.34202168     -0.12496639
O       2.00386995     -0.42656462     -0.46171066
F      -0.28023165     -1.59558667     -0.40175938
H      -1.26176112      1.48278058      0.45616299
H       2.73488514      0.20096543     -0.42180436
