15
b3lypvtz=-157254.18511912
C      -2.57698736     -0.82078535      0.00194934
C      -1.95157825      0.54071435     -0.00026600
C      -0.64271068      0.83495922     -0.00012910
C       0.47643935     -0.08150582      0.00767292
C       1.75532793      0.33379432      0.00597234
N       2.88051601     -0.47005515     -0.07223907
H      -1.84221004     -1.62454076      0.00049606
H      -3.21610561     -0.95806504      0.87976259
H      -3.21982568     -0.95882618     -0.87292790
H      -2.64852515      1.37221004     -0.00282141
H      -0.37452264      1.88828156     -0.00476199
H       0.27745011     -1.14824944      0.00771941
H       1.97590218      1.39598701      0.00617597
H       2.74364077     -1.44619446      0.14006831
H       3.71883406     -0.09864031      0.34344351
