14
b3lypvtz=-195624.02416975
C       2.72661404     -0.60816240     -0.00026000
C       1.70038533      0.51523702      0.00046160
N       0.33717630     -0.02386960      0.00057533
C      -0.62594934      0.78250538     -0.00016628
C      -2.06364160      0.35383976     -0.00007874
F      -2.21838851     -1.01274700      0.00086287
H       2.60441819     -1.23922347      0.88050010
H       3.74145785     -0.20653554     -0.00029018
H       2.60407893     -1.23845531     -0.88152478
H       1.84246226      1.15241194     -0.87908849
H       1.84277875      1.15146310      0.88063725
H      -0.50087773      1.87833081     -0.00095150
H      -2.56564833      0.76208847     -0.88504362
H      -2.56591815      0.76334083      0.88415444
