15
b3lypvtz=-180561.64402475
C      -2.32594006     -0.31559133     -0.11824528
C      -0.89162214      0.12271634      0.03227985
N      -0.51905115      1.32263924      0.23382006
C       0.15173838     -0.96644466     -0.08489779
C       1.55161773     -0.55596756      0.37018500
O       2.10056489      0.48288010     -0.41688465
H      -2.45757537     -0.89106230     -1.03733595
H      -3.00557339      0.53578751     -0.13611744
H      -2.60926620     -0.97288303      0.70754506
H      -1.31141736      1.96186258      0.28278043
H       0.18915026     -1.28011339     -1.13453485
H      -0.18259770     -1.84325184      0.47985378
H       2.22530453     -1.40957381      0.28169118
H       1.51649490     -0.27155942      1.42947719
H       1.49237368      1.22911257     -0.30220360
