11
b3lypvtz=-199892.061840574
C      -1.88487181     -0.23662509      0.34073885
N      -0.58789908     -0.38769240      0.12973991
C       0.33661671      0.47832734     -0.29398962
N       1.61361350      0.12307380     -0.44339590
N       1.91285171     -1.09468793     -0.15989323
O      -0.08153849      1.74299159     -0.56739918
H      -2.33742896      0.72185814      0.15989830
H      -2.44512574     -1.08593217      0.68887172
H      -0.13889418     -1.29415421      0.29650926
H       2.91271787     -1.19783688     -0.32580087
H       0.69995846      2.23067782     -0.85691635
