18
b3lypvtz=-171253.82812075
C       2.51868361      0.25293573      0.38492818
C       1.02527987      0.57902873      0.41255427
C       0.15214265     -0.60086517     -0.02017069
C      -1.35664472     -0.37234955      0.10575520
C      -1.89677253      0.69955066     -0.82641983
O      -2.07682429     -1.56959522     -0.21299026
H       3.11900635      1.11085218      0.69173228
H       2.84056804     -0.03561370     -0.61804747
H       2.75479670     -0.57486293      1.05724773
H       0.83369980      1.43734743     -0.23591535
H       0.74014146      0.89008985      1.42272984
H       0.37550728     -0.87547085     -1.05580608
H       0.41425903     -1.47189396      0.59301745
H      -1.57944303     -0.08180590      1.14248066
H      -2.97936035      0.77025612     -0.72329303
H      -1.66879256      0.44792253     -1.86392070
H      -1.46660878      1.67511577     -0.60057879
H      -1.74963851     -2.28064171      0.34669662
