10
b3lypvtz=-186690.95780207583
C       0.94203511      0.37275825      0.15055167
N       1.61152899     -0.73524396      0.24946747
N       2.16690988     -1.71933205      0.33135060
C      -0.50860412      0.38947254     -0.07743789
N      -1.19855370      1.46525234     -0.17715588
N      -1.13106962     -0.82472630     -0.18514853
H       1.51107755      1.28243396      0.24536940
H      -0.61870481      2.29162843     -0.07895583
H      -0.65218318     -1.70071997     -0.11806597
H      -2.12243611     -0.82152325     -0.33997503
