11
b3lypvtz=-179046.51867263
C      -0.48559288     -1.11597395      0.16716789
C       0.47110246      0.02260438      0.29388811
C       0.34845550      1.22239956     -0.30139484
C      -0.73795457      1.55277573     -1.14373529
N      -1.61907970      1.83802001     -1.83435639
O       1.55686981     -0.18027237      1.08104476
H      -1.32126369     -0.86512257     -0.48035595
H       0.02286001     -1.99188981     -0.24561690
H      -0.87839298     -1.38998892      1.15041046
H       1.10627960      1.97632240     -0.13738515
H       1.53671644     -1.06887445      1.45033330
