13
b3lypvtz=-179806.19734829
N       2.11839750     -0.15854403     -0.07482216
C       0.86683760     -0.03333049      0.00874841
C      -0.01291330      1.19588131      0.17456550
C      -1.40078503      0.69292513     -0.23118389
C      -1.30717237     -0.79014222      0.13306666
O       0.07530719     -1.14201200     -0.04314864
H       2.56796219      0.75172665     -0.03746885
H       0.35292525      2.02892062     -0.42214319
H       0.00744441      1.50285392      1.22351248
H      -2.21868159      1.19739452      0.28049231
H      -1.54825508      0.80792423     -1.30568174
H      -1.58674887     -0.97145325      1.17495371
H      -1.89855690     -1.44217140     -0.50655459
