11
b3lypvtz=-202314.49744947
C      -0.88642141      1.59498833      0.00004491
C      -0.01166308      0.37957817      0.00015281
C      -0.66775142     -0.96106223      0.00025632
O      -1.87182081     -1.07667854     -0.00008383
N       1.25761849      0.55984324     -0.00015503
O       1.99938532     -0.62174111      0.00051900
H      -1.53762485      1.59514124      0.87542186
H      -1.53794355      1.59464160     -0.87508898
H      -0.27614497      2.49471423     -0.00030947
H      -0.00434900     -1.83658225     -0.00057052
H       2.90542228     -0.29725868     -0.00000808
