12
b3lypvtz=-192238.19308234
O       2.19811186     -0.04434068      0.82673166
C       1.33850439      0.25690665     -0.20067241
C       0.03927233      0.04449786     -0.09775871
C      -1.16642397      0.24255701     -0.98113612
O      -2.02195390     -0.29165649      0.06389271
C      -0.88950230     -0.50125729      0.95214871
H       3.09620478      0.17737230      0.56977864
H       1.78155975      0.67676024     -1.09724319
H      -1.21082079     -0.36502483     -1.89074128
H      -1.42663164      1.27693383     -1.22792283
H      -0.97711389      0.08420284      1.87263856
H      -0.76150661     -1.55705145      1.21028425
