11
b3lypvtz=-179034.1655274
C      -2.91136114      0.24345150     -0.00002340
C      -1.76943648     -0.44725120     -0.00008886
C      -0.47562021      0.20537459     -0.00005245
N       0.62021679     -0.45617838     -0.00003197
C       1.79215612      0.33078046      0.00004566
O       2.89782591     -0.13152814      0.00009724
H      -3.87397097     -0.24871738      0.00022077
H      -2.91526938      1.32696928     -0.00023855
H      -1.75993743     -1.53008641     -0.00017115
H      -0.48164550      1.30524985      0.00006607
H       1.61783530      1.42990382      0.00003563
