17
b3lypvtz=-181313.09271912
C      -2.52763391      0.84393413      0.31462349
C      -1.57554482     -0.20551233     -0.22229166
O      -0.28669970      0.02652493      0.31868656
C       0.68923401     -0.90631495     -0.11717201
C       2.03075182     -0.49420157      0.45298913
N       2.44956332      0.78708518     -0.11703337
H      -2.19763756      1.84354086      0.03008019
H      -2.57726334      0.79628734      1.40282008
H      -3.53080842      0.68578171     -0.08428713
H      -1.53266764     -0.16436439     -1.31933485
H      -1.91855638     -1.21320330      0.05183311
H       0.74025028     -0.91357921     -1.21361473
H       0.42592451     -1.91686822      0.22454065
H       1.95198848     -0.49241059      1.54941509
H       2.76578905     -1.25553209      0.18041003
H       3.33031896      1.08454874      0.28438710
H       1.76309133      1.49428376      0.11884831
