8
b3lypvtz=-211623.604837
C      -0.69100040      0.75320658     -0.20985733
C       0.44022911      0.04160941      0.01813581
N       0.06361069     -1.24624618      0.27965542
N      -1.19155804     -1.35802364      0.22622726
O      -1.72658133     -0.09238554     -0.08731880
O       1.72223890      0.44229069      0.00949131
H      -0.89504637      1.77936756     -0.44961133
H       2.27810743     -0.31981887      0.21327764
