13
b3lypvtz=-179791.70723209
N      -2.13276836      0.06327001      0.07237050
C      -0.74908398      0.11696508     -0.00824508
C       0.08181678      1.15987911     -0.01953870
C       1.49940205      0.67536984      0.01253709
O       1.40796821     -0.75732864     -0.05372331
C       0.04875384     -1.15890270      0.02779206
H      -2.55657019     -0.72099922     -0.40028770
H      -2.60774897      0.92537623     -0.14651582
H      -0.19310964      2.20438304     -0.02753116
H       2.03114316      0.96317571      0.93000362
H       2.09870325      1.02661795     -0.83574111
H      -0.13884605     -1.71906740      0.95447832
H      -0.19076010     -1.82322501     -0.81377373
