14
b3lypvtz=-146384.45666879
C      -1.87350320     -1.07627364     -0.12666569
C      -0.71210562     -0.48545030      0.10307921
C       0.70183898     -0.49946582      0.10306050
C       1.85141621     -1.11284263     -0.12697617
C       0.00728546      0.75371481      0.53305247
C       0.02031545      2.00304136     -0.32945755
H      -2.81132365     -0.56128536      0.03996437
H      -1.92530384     -2.09573103     -0.48864451
H       1.88323560     -2.13286293     -0.48969163
H       2.79910055     -0.61634614      0.04013974
H       0.00902824      0.94890883      1.60479701
H       0.01827691      1.74142414     -1.38801472
H      -0.85654554      2.62244359     -0.13093214
H       0.90937545      2.60448711     -0.12997488
