15
b3lypvtz=-180547.59367974
C       3.00373515     -0.16510358     -0.00966959
C       1.64730379      0.44392205      0.31448477
N       0.57276256     -0.27838976     -0.36732384
C      -0.71996238      0.26467534     -0.25829102
C      -1.80703500     -0.39878143      0.13597607
O      -3.09900704      0.06853602      0.11144947
H       3.06392796     -1.19906786      0.33904686
H       3.18001556     -0.16197548     -1.08568016
H       3.80441797      0.39294353      0.47746696
H       1.61416758      1.48063898     -0.03088601
H       1.49772193      0.47381212      1.40412630
H       0.58700684     -1.26406727     -0.13726080
H      -0.80017755      1.29845194     -0.58576369
H      -1.76925923     -1.42028492      0.49232446
H      -3.10645716      0.96583332     -0.23890577
