11
b3lypvtz=-178970.27723792
C       0.75861157     -0.55620086     -0.05602907
C       0.23795490      0.78089802     -0.47070165
N       1.11027366      0.65635151      0.72245027
C      -1.15000856      0.36823577     -0.02762661
C      -0.63533827     -0.95342729      0.38233744
O      -1.51801507     -0.82091792     -0.74076785
H       1.51153529     -1.16204871     -0.53733824
H       0.52304101      1.37686842     -1.32462042
H       2.05083073      0.93817710      0.45019051
H      -1.94122985      0.96168588      0.40530525
H      -0.94765540     -1.58962192      1.19680037
