13
b3lypvtz=-203101.01936772
C      -1.67235243      1.03003263      0.05533953
C      -0.66854441     -0.06933990      0.00110870
O      -1.25484343     -1.31482184     -0.07098538
C       0.66147191      0.06092722      0.01901745
N       1.43234119      1.23374916     -0.09980586
O       1.42516281     -1.09715819      0.09917736
H      -1.20594210      1.99733079      0.23180573
H      -2.38505629      0.84398650      0.86275219
H      -2.24703465      1.08451719     -0.87332721
H      -0.54106011     -1.96513848     -0.09765732
H       1.86049501      1.53059179      0.77064615
H       0.93051133      2.00347322     -0.51479866
H       2.20489615     -0.95818609     -0.45260768
