19
b3lypvtz=-158776.81466878
C      -3.15190629      0.16073730      0.00350510
C      -1.80509178     -0.55895563     -0.03986596
C      -0.61767733      0.39647758      0.02122503
N       0.65015587     -0.31735071     -0.06113687
C       1.82501414      0.54214347      0.02136508
C       3.10940989     -0.27381293     -0.02990401
H      -3.98059539     -0.54759923     -0.03449039
H      -3.26058961      0.74816740      0.91790816
H      -3.26199287      0.84339355     -0.84198065
H      -1.72382383     -1.15632776     -0.95080059
H      -1.74099098     -1.26269342      0.79713757
H      -0.66687095      1.08999345     -0.82466229
H      -0.69437771      1.01749175      0.93156644
H       0.69258613     -1.01603798      0.67331488
H       1.79369893      1.23093915     -0.82792710
H       1.82286915      1.17168565      0.92789356
H       3.17806191     -0.95249847      0.82406137
H       3.98519663      0.37614570     -0.00505516
H       3.14627707     -0.87384188     -0.93960918
