12
b3lypvtz=-192282.84510028
C      -2.08635583     -0.17969448     -0.43482535
C      -0.90950767      0.07354551      0.47201882
C       0.10787241      1.15757321      0.07960262
C       1.07784893     -0.01119191     -0.03787998
O       2.22152808     -0.18307036     -0.30796625
O       0.14501101     -0.95465010      0.30913336
H      -2.82554169      0.61545585     -0.31901273
H      -2.56484413     -1.12751977     -0.18712459
H      -1.77400887     -0.21374593     -1.47944685
H      -1.20397218      0.10039996      1.52059148
H       0.37455579      1.88030129      0.84773470
H      -0.08325884      1.67206874     -0.86049523
