14
b3lypvtz=-190617.69862351
C      -2.25638480     -0.26523789      0.40099584
O      -1.18948152     -0.48413096     -0.52668299
C       0.01749292      0.06104162     -0.18965082
N       0.01960344      1.44239588     -0.01175954
C       1.09048302     -0.72530955     -0.04075231
N       2.37627279     -0.12905228      0.18642951
H      -3.13129508     -0.75182258     -0.02383502
H      -2.45908968      0.79668321      0.54484173
H      -2.01993573     -0.71739668      1.36824181
H      -0.48571515      1.93330901     -0.73806790
H       0.97001368      1.77968506      0.07936409
H       0.96298004     -1.80012387     -0.10118245
H       3.06638926     -0.46923035     -0.47322406
H       2.72966681     -0.33974262      1.11310011
