14
b3lypvtz=-169717.5018465
O       1.99442808     -1.30752486      0.77613474
C       1.79966200     -0.27667223      0.18330327
C       0.56200213      0.06763657     -0.59437835
C      -0.60469691     -0.94017852     -0.48489132
C      -1.29433414     -0.00429347      0.54246652
C      -0.31570794      1.13291482      0.14992829
H       2.56256799      0.53227996      0.20032297
H       0.87590743      0.36489417     -1.59844720
H      -0.32887220     -1.93278971     -0.13631211
H      -1.16123215     -1.02654235     -1.41697618
H      -2.35358726      0.19684047      0.39203266
H      -1.14723364     -0.34006287      1.56796056
H       0.16256691      1.68237355      0.96140679
H      -0.75127030      1.85132448     -0.54255064
