11
b3lypvtz=-202342.52073618333
C      -1.43359401     -0.52937724      1.86113531
N      -0.40161565     -0.27659775      1.09756648
C      -0.27842873      0.17503445     -0.16619514
C       1.06712221      0.30849393     -0.61407581
O       2.05603003      0.04490677      0.06445895
O       1.17508560      0.76449296     -1.89065782
H      -2.43051539     -0.37277919      1.48313338
H      -1.25748745     -0.89126786      2.85835289
H       0.52947245     -0.43825440      1.49307775
H      -1.14953357      0.40402567     -0.75367985
H       2.12346452      0.81132267     -2.07433822
