13
b3lypvtz=-203085.91210224
N       2.77818139      0.41110701      0.22933878
C       1.61224700     -0.34596957      0.10038269
C       0.44713281      0.07835969     -0.38980418
O      -0.64513342     -0.76626766     -0.45002717
C      -1.73851051     -0.40088747      0.37070667
O      -2.36387868      0.79679721     -0.01190501
H       3.62753348     -0.11169245      0.07880261
H       2.78629419      1.26668231     -0.30673627
H       1.67813514     -1.35608299      0.48614133
H       0.31353373      1.06752769     -0.81869136
H      -1.40412888     -0.34861768      1.41416764
H      -2.47076936     -1.19447494      0.24115359
H      -1.88259690      1.53651986      0.37087569
