10
b3lypvtz=-209980.20608156
N       2.14761405      0.49449554     -1.57204686
N       1.29465830      0.13002592     -0.57897252
N       0.10484152      0.13230345     -0.93533008
N      -0.72543659     -0.15222617      0.11603844
C      -2.08674038     -0.23400173     -0.03178652
O      -2.70793445     -0.08163265     -1.05223552
H       3.05492958      0.07897732     -1.43449366
H       1.76773670      0.39996075     -2.50924856
H      -0.29555097     -0.30076835      1.02172346
H      -2.55431776     -0.46713407      0.94185183
