12
b3lypvtz=-192245.54913745
C       2.26827919      0.84145835      0.27647422
C       1.40831826      0.02474422      0.09508691
C       0.33139916     -0.94162340     -0.08176451
C      -1.05717024     -0.28233757     -0.06990947
O      -1.17966313      0.44368447     -1.27256863
O      -1.26870191      0.52374072      1.05784067
H       3.04287977      1.55319166      0.41781197
H       0.36609027     -1.67638069      0.72548623
H       0.45298596     -1.47756136     -1.02499317
H      -1.82273135     -1.06121429     -0.00664578
H      -2.01885496      0.91586178     -1.24130988
H      -0.52273102      1.13643611      1.12439143
