11
b3lypvtz=-207328.46638742
C       2.23614645     -0.70161372     -0.22873301
C       1.43195749      0.23276652      0.27443262
C      -0.01609590      0.31066213      0.06621668
O      -0.56675737      1.54946644     -0.14674265
C      -0.80615323     -0.76039727      0.15628835
F      -2.13387509     -0.68104495     -0.04660200
H       3.29251162     -0.71478059      0.00296374
H       1.86167143     -1.47954209     -0.88113134
H       1.85102141      1.02507043      0.89087007
H       0.11087907      2.13690845     -0.49536744
H      -0.45964886     -1.74226436      0.43486697
