16
b3lypvtz=-168082.78218087
C      -2.61467780     -0.24407308     -0.26981799
N      -1.38639839      0.32323192      0.27104345
C      -0.24527782     -0.52610790      0.17993812
C       0.98453601     -0.01894501      0.00923395
C       2.21093028     -0.87557851     -0.05840013
N       1.20724182      1.35930902     -0.03025633
H      -2.51344745     -0.37539700     -1.34812116
H      -3.44434078      0.44063904     -0.09079710
H      -2.87670344     -1.22178692      0.16221651
H      -1.53607601      0.64003115      1.22247060
H      -0.38612894     -1.60043429      0.26905670
H       1.95370036     -1.93213983     -0.01338817
H       2.75906177     -0.69742597     -0.98940200
H       2.89368435     -0.64970546      0.76494538
H       1.97459153      1.64067801     -0.62303520
H       0.35732752      1.87195684     -0.23108862
