14
b3lypvtz=-146420.07107565
C       2.13392935     -0.00000201     -0.00000997
C       0.80767555     -0.00000076      0.00000478
C      -0.08263497      1.23750193      0.00001086
C      -1.47612567      0.66443233     -0.00000982
C      -1.47612696     -0.66442931     -0.00000900
C      -0.08263735     -1.23750165      0.00001106
H       2.70297441     -0.92149678     -0.00001632
H       2.70297607      0.92149173     -0.00001606
H       0.10114022      1.86987493      0.87510809
H       0.10116079      1.86989969     -0.87506366
H      -2.36234133      1.28471698     -0.00001990
H      -2.36234381     -1.28471225     -0.00001986
H       0.10115651     -1.86989926     -0.87506397
H       0.10113718     -1.86987557      0.87510777
