11
b3lypvtz=-202362.19695462
C      -1.08396770     -1.18850929      0.04505951
C      -0.75920465      0.10354115      0.10481630
O      -1.66925597      1.07150984      0.33296184
C       0.62432389      0.68150625     -0.05827985
N       1.65437248     -0.14595294     -0.33768420
O       0.76168352      1.89197285      0.07739514
H      -2.10776789     -1.50510506      0.17908152
H      -0.34477689     -1.95520140     -0.12206917
H      -1.15771428      1.90334693      0.34789608
H       2.56139975      0.26216402     -0.48326681
H       1.52090774     -1.11927234     -0.53601035
