12
b3lypvtz=-215582.89765591
C       1.65776803      0.02710739     -0.01273056
C       0.27821096     -0.15472076     -0.57149845
O       0.03092001     -0.18516969     -1.75800945
C      -0.89202482     -0.26905130      0.43447859
O      -2.05738785     -0.59285673     -0.24029923
O      -0.99578628      0.96054091      1.13925483
H       1.95340436     -0.88226713      0.51788176
H       1.65968686      0.83552109      0.71883516
H       2.36756593      0.22725931     -0.81106641
H      -0.67475781     -1.01820382      1.20050399
H      -1.84733436     -0.51965815     -1.18777245
H      -1.48026505      1.57149889      0.57042221
