13
b3lypvtz=-179789.05035071
O       2.18043611      0.63409791     -0.62518333
C       0.88504900      0.33544500     -0.33247812
C      -0.17913497      1.06858464     -0.63849922
C      -1.42193827      0.41484591     -0.10966171
N      -0.95060751     -0.91383178      0.34658297
C       0.51205541     -0.90098455      0.43720143
H       2.74291836     -0.11207058     -0.39747552
H      -0.16803508      2.00109309     -1.18102818
H      -2.19449669      0.30239490     -0.87827694
H      -1.87222813      1.00173425      0.70518042
H      -1.38123731     -1.18821630      1.21632214
H       0.95201052     -1.80295925     -0.01147139
H       0.89520857     -0.83993323      1.46868745
