12
b3lypvtz=-166533.41946006
C       2.79164013     -0.33235870     -0.00000801
C       1.45741323     -0.40626225     -0.00000781
C       0.60656012      0.76364255      0.00000315
C      -0.73941416      0.76293759     -0.00000450
N      -1.45707439     -0.43869708      0.00006333
N      -2.69621328     -0.27298289      0.00008429
H       3.40788035     -1.22081424      0.00003829
H       3.30656613      0.62110554     -0.00005909
H       0.96401126     -1.36948459     -0.00001023
H       1.10450566      1.72744544      0.00003383
H      -1.31984638      1.68101785     -0.00002807
H      -3.11753766     -1.21127722      0.00002383
