10
b3lypvtz=-189122.9146938
C      -1.42470138     -0.61258347      0.22974001
C      -1.39659603      0.58566562     -0.37929934
O      -0.06842941      0.98208613     -0.45375690
C       0.60766146     -0.03472582      0.12854853
N      -0.12917558     -1.01161086      0.55135436
N       1.96203526      0.11825073      0.25505212
H      -2.27704390     -1.22781952      0.46084260
H      -2.12243677      1.25574032     -0.79802875
H       2.44628201     -0.74139556      0.45608484
H       2.40240435      0.68639243     -0.45053749
