8
b3lypvtz=-190715.46786259
C       1.73385322     -0.54669080      1.13019867
C       0.92351527     -0.33420795      0.26997538
C      -0.05869337     -0.07358036     -0.75165387
O       0.11168503     -0.29353804     -1.93058946
C      -1.40177531      0.52128290     -0.29878754
O      -1.67303086      0.77441056      0.84039867
H       2.45329694     -0.73583230      1.88921441
H      -2.08895092      0.68815600     -1.14875626
