18
b3lypvtz=-168843.58315095
N       2.75345908     -0.55923504      0.04316697
C       1.47665858      0.00369314      0.49095534
C       0.52149068      0.45353146     -0.62068481
C      -0.78790699      1.07565839     -0.12020397
C      -1.74307601      0.10743676      0.58327566
N      -2.12984296     -0.99548544     -0.30351560
H       3.24054491      0.10577713     -0.54779334
H       2.58912419     -1.38003370     -0.52923167
H       0.99353871     -0.74855503      1.11820749
H       1.69836332      0.85135083      1.14714665
H       0.28967983     -0.40242303     -1.25878255
H       1.04292234      1.18539708     -1.24671029
H      -0.56794416      1.90021605      0.56588526
H      -1.31621983      1.52493462     -0.96826620
H      -2.59956061      0.68215332      0.96368172
H      -1.25396287     -0.32940924      1.45659929
H      -2.69439285     -1.67329900      0.19373073
H      -2.69852536     -0.64931629     -1.06850668
