14
b3lypvtz=-169722.97948965
C       1.96033386      0.03954714     -0.44899869
C       0.75779100      0.01753979      0.50365117
C      -0.18437152      1.18518231      0.29541419
C      -1.32813082      0.73405517     -0.20581336
O      -1.40972177     -0.62092367     -0.34912069
C      -0.21018860     -1.16751173      0.26106799
H       2.60169510     -0.83118939     -0.29348821
H       2.56690947      0.93312686     -0.29109111
H       1.62843220      0.03985044     -1.48889720
H       1.13091100     -0.01691541      1.53046106
H       0.06718141      2.21991856      0.46101818
H      -2.20481344      1.27431250     -0.52943697
H      -0.50834424     -1.64777614      1.19508384
H       0.19140034     -1.92219745     -0.41441719
