14
b3lypvtz=-167289.65273847
C       1.70287933     -1.18418638     -0.10073352
C       0.38672281     -1.13343763      0.13975083
N      -0.53314294     -0.09409447      0.08202816
C      -1.93978919     -0.45775287     -0.06436443
N      -0.31775012      1.23217688     -0.07115776
C       0.82938150      1.78493148      0.03390108
H       2.19417431     -2.13986235      0.00756188
H       2.31134331     -0.36322134     -0.43258081
H      -0.10485469     -2.05751273      0.42119905
H      -2.54425520      0.39739657      0.21995158
H      -2.18255988     -0.73773413     -1.09390715
H      -2.17585670     -1.29686535      0.58981180
H       1.76108259      1.28583284      0.25800302
H       0.83653187      2.86347247     -0.06127974
