17
b3lypvtz=-157960.4800578098
C       1.99420852     -0.41138020      0.48961671
C       1.27840079      0.29346720     -0.68370729
C      -0.21772167      0.39932483     -0.60083279
N      -0.67902670      1.25075116      0.53499743
H      -0.09702156      2.07814114      0.63534891
H      -0.72815951      0.76524591      1.45776898
H      -1.63684211      1.54828558      0.33943622
C      -1.08256409     -0.70228701     -0.74885504
C      -2.27299574     -0.94866118     -0.12665384
H       1.62153724     -1.42900663      0.61535572
H       1.84169159      0.11294639      1.43889394
H       3.07397897     -0.45947337      0.32773060
H       1.50395776     -0.24987377     -1.60450562
H       1.73129524      1.28542991     -0.82267586
H      -0.74718284     -1.43577444     -1.47790851
H      -2.87700098     -1.80096118     -0.39866154
H      -2.70655491     -0.29617434      0.62465200
