13
b3lypvtz=-177380.37180143
C      -1.89067862     -0.58582383     -0.81916628
C      -0.91452418      0.16405726     -0.27429477
N      -1.04059361      1.50180764      0.06219337
C       0.37534467     -0.44988463      0.04262339
N       1.34027478      0.25099431      0.49615810
N       2.55270705     -0.35019734      0.69915583
H      -2.85751319     -0.17251775     -1.07051880
H      -1.72900570     -1.63504390     -1.01227520
H      -0.16166384      1.98220698      0.17621891
H      -1.73266800      2.02236401     -0.44977924
H       0.47078536     -1.52264132     -0.14191306
H       3.07604390      0.14350090      1.40546736
H       2.51149138     -1.34882233      0.88613041
