11
b3lypvtz=-176642.53494844
N       1.02317100      0.13234431     -0.30966697
C       0.40488990     -1.07107988     -0.65369593
C       0.77428680     -2.39050074     -0.48002401
C      -0.23869211     -3.12870298     -1.13091650
N      -1.16828566     -2.35208820     -1.66146037
N      -0.75075919     -1.09370776     -1.36192657
H      -1.26026052     -0.30642060     -1.72173388
H       0.41303334      0.78427924      0.16488527
H       1.85664064     -0.01190174      0.23988744
H       1.63555467     -2.76002737      0.04846441
H      -0.32547887     -4.19979428     -1.22051289
