14
b3lypvtz=-146397.0967239
C      -2.83092908     -0.58317361      0.29307465
C      -1.77814799     -0.21350534     -0.42175264
C      -0.81611081      0.88053980     -0.02647585
C       0.57543962      0.43022784      0.01123593
C       1.71289027      0.04364264      0.03185018
C       3.09268557     -0.42207042      0.06505680
H      -3.06751644     -0.11563081      1.24184519
H      -3.49553897     -1.36778064     -0.04355515
H      -1.56182998     -0.70827741     -1.36293054
H      -0.89886223      1.70678691     -0.74256305
H      -1.10335793      1.28730505      0.94681946
H       3.14132058     -1.51136916      0.00643982
H       3.58842918     -0.11702135      0.98893044
H       3.66749920     -0.01734550     -0.77047423
