12
b3lypvtz=-215582.42778309
O       2.54041078      0.07064707      1.03034338
C       2.08538281      0.49456916      0.00614099
O       0.82178670      0.34178879     -0.41622450
C      -0.06970648     -0.39234818      0.46263258
C      -1.40979521     -0.46340104     -0.23346296
O      -2.00532658      0.81137220     -0.40695093
H       2.64566121      1.07155100     -0.74100573
H       0.34298365     -1.38550519      0.64440918
H      -0.14271799      0.13920427      1.41103834
H      -1.29966932     -0.98552777     -1.19121680
H      -2.09443302     -1.04366882      0.38656080
H      -1.41457654      1.34131851     -0.95216434
