16
b3lypvtz=-168072.30663812
C       1.28357950      1.33604745     -0.01287496
N       1.00181899     -0.04902419     -0.31678455
C       1.98663197     -0.98091517      0.20640661
C      -0.32984799     -0.47004547     -0.18698092
C      -1.39672195      0.28603188      0.10079535
N      -2.73979071     -0.13970881     -0.02134576
H       2.32838876      1.54871577     -0.23875019
H       1.10300293      1.59278201      1.04454193
H       0.66030745      1.98582824     -0.62874031
H       1.76666746     -1.98687653     -0.15279606
H       2.00970010     -1.01201511      1.30747231
H       2.97995247     -0.70355364     -0.14897527
H      -0.47075665     -1.52208720     -0.41838596
H      -1.29496359      1.33301838      0.35155065
H      -2.82424024     -1.13971073     -0.14870696
H      -3.31027349      0.14235612      0.76468806
