16
b3lypvtz=-147164.34340226
C       2.38077835      0.28296377      0.00674359
C       1.17326770     -0.59611206     -0.32072151
C      -0.08015620     -0.21620752      0.46079118
C      -1.37799675     -0.92302638      0.10715571
C      -2.01368849      0.19310267     -0.25252219
C      -0.83237713      1.09930981      0.02680704
H       2.64535774      0.21095356      1.06407336
H       3.25574529     -0.01223954     -0.57468571
H       2.17809390      1.33356244     -0.21150541
H       0.95324812     -0.54377490     -1.39157298
H       1.41733440     -1.64235150     -0.11030629
H       0.13934285     -0.22780453      1.53368188
H      -1.66641054     -1.96622841      0.14416516
H      -3.01572394      0.39738462     -0.60694169
H      -0.40137111      1.59599591     -0.84548451
H      -0.97257818      1.84159306      0.81575138
