13
b3lypvtz=-184775.33163166
C      -2.35294747     -0.54600744     -0.18084246
C      -1.29440800     -0.08629697      0.14548048
C      -0.00451402      0.48126571      0.53907682
C       0.40562670      1.65440598     -0.36811719
C       1.08549055     -0.59040408      0.60435204
F       1.36173331     -1.09306440     -0.66305207
H      -3.28748369     -0.95572171     -0.47237809
H      -0.10548827      0.85549193      1.56520217
H       0.56030441      1.30878956     -1.38861053
H       1.33373183      2.10266110     -0.00950205
H      -0.36789944      2.42069094     -0.37687261
H       2.00947925     -0.15790415      0.99509920
H       0.77642784     -1.42637346      1.23282428
