15
b3lypvtz=-180574.93553509
C      -1.77625734      0.80777209      0.00002848
C      -0.72671053     -0.29271469      0.00009815
O      -1.06463685     -1.46701323     -0.00002523
N       0.59220542      0.08281970      0.00024738
C       1.07423472      1.44943544     -0.00017611
C       1.62426441     -0.94070089     -0.00002034
H      -1.69836076      1.44533633      0.88207424
H      -2.74741398      0.32281966      0.00011018
H      -1.69839742      1.44509363     -0.88219915
H       1.69203917      1.64101699      0.88303858
H       0.25461681      2.15887603      0.00053711
H       1.69060341      1.64109381     -0.88439307
H       2.25910277     -0.84499746      0.88559704
H       2.25808885     -0.84565820     -0.88644901
H       1.14763933     -1.91505220      0.00058074
