13
b3lypvtz=-184793.17453724
C       1.36008432      1.38999199     -0.10613600
C       1.02879022      0.09686241     -0.07340506
C       2.05083012     -0.98535278      0.16174037
C      -0.35112966     -0.37168665     -0.27985208
C      -1.41833678      0.22851043      0.22646315
F      -2.66438165     -0.23075745     -0.00111993
H       0.63399051      2.15801458     -0.33560996
H       2.37572775      1.71321161      0.08113419
H       2.06827193     -1.68707855     -0.67702951
H       1.80826722     -1.56791106      1.05404403
H       3.05080650     -0.57079758      0.27990041
H      -0.50208337     -1.28727454     -0.84275021
H      -1.41309510      1.10381059      0.86138861
