14
b3lypvtz=-167340.15228502
C      -1.20966879      0.54169725     -0.54338378
C       0.18241808      0.07342887     -0.99713270
C       0.84871713     -0.19824502      0.33733112
N       0.08038047     -0.23320877      1.35391457
C      -1.29348569      0.02380515      0.91596804
N       2.21124754     -0.36207439      0.41221746
H      -2.01447266      0.16828440     -1.17530596
H      -1.25859087      1.63110328     -0.55738474
H       0.72489337      0.80971437     -1.59200399
H       0.14256709     -0.85048244     -1.58352330
H      -1.87277191     -0.90353215      0.98477302
H      -1.77428193      0.74175563      1.58308721
H       2.68406258     -0.68514831     -0.41433677
H       2.54898559     -0.75709787      1.27577983
