11
b3lypvtz=-199897.085486894
C       0.56016893      0.20321435      0.50726402
N      -0.54074873     -0.09927203     -0.16583772
N      -0.72675679     -0.63499925     -1.34870907
C      -1.83945627      0.19021705      0.46571712
O      -1.96415462      0.67830499      1.54046936
N       1.79978522     -0.07418046     -0.09876009
H       0.41814022      0.64499200      1.48141102
H       0.20713494     -0.80740093     -1.72404954
H      -2.63092963     -0.12185100     -0.22575279
H       2.35679117     -0.73622103      0.42912925
H       2.36002556      0.75719630     -0.24763422
