16
b3lypvtz=-170469.27350745
C       2.35339359      0.32827094     -0.63380880
O       1.05153379      0.40018909     -1.17981136
C       0.09309936     -0.31931178     -0.44468633
C      -1.32655719     -0.27517571     -1.03007491
C      -1.87126928     -0.17526473      0.41937289
C      -0.46008004      0.27894628      0.87790522
H       2.70621041     -0.70929141     -0.57512100
H       3.01321074      0.88876638     -1.29365602
H       2.40052545      0.76783421      0.36938065
H       0.43492483     -1.35192776     -0.29159036
H      -1.64775149     -1.10863013     -1.65281405
H      -1.46818086      0.65695010     -1.57706814
H      -2.13711397     -1.15132941      0.82462323
H      -2.69812224      0.50966103      0.59650951
H      -0.36616637      1.36547142      0.86436937
H      -0.07765669     -0.10515852      1.82283829
