11
b3lypvtz=-204945.85813339
C       1.40067430      1.20800990     -0.16149093
C       0.72226948      0.08283537      0.00529341
F       1.39018226     -1.07687339      0.18903077
C      -0.75276135     -0.11164082     -0.01217573
N      -1.32138059     -1.24180726     -0.16271930
N      -1.49812304      1.04972155      0.07743484
H       0.88220048      2.13308645     -0.35515472
H       2.48042043      1.21039285     -0.14003413
H      -0.63289280     -1.97749788     -0.29102707
H      -2.48762990      0.87153300      0.16173570
H      -1.15603327      1.75808923      0.70631616
