11
b3lypvtz=-176634.15705062522
C      -1.81437768     -0.11484618      0.06725916
N      -0.36874686     -0.02364934      0.01376681
N       0.42000514     -0.90044990      0.62053724
C       1.64908881     -0.47118657      0.33402632
C       1.54408755      0.67783760     -0.45545633
N       0.25168912      0.94331273     -0.64585169
H      -2.06521162     -0.98623358      0.66318261
H      -2.21682945     -0.22066143     -0.93892976
H      -2.22593452      0.78330359      0.52508524
H       2.51774521     -0.99184067      0.69720013
H       2.30848433      1.30441377     -0.88081970
