14
b3lypvtz=-190626.49881637
C       2.61701845     -0.15854341      0.08256359
N       1.28562442      0.37658090     -0.17250836
C       0.21200467     -0.56413067      0.06686233
C      -1.15228906      0.10798429      0.03841098
N      -1.38836004      1.34244376      0.09305704
O      -2.20359412     -0.75560821     -0.03257539
H       2.71641899     -0.39601979      1.14324951
H       3.36226330      0.59872972     -0.15869840
H       2.85335042     -1.06826555     -0.48929785
H       1.22576163      0.73059534     -1.11943230
H       0.35246115     -1.00314203      1.06019163
H       0.20369041     -1.41170003     -0.64296586
H      -0.50461932      1.84053802      0.18179064
H      -1.88144689     -1.65713232     -0.13670856
