12
b3lypvtz=-166574.73446419
N       2.06015667     -0.01007643     -0.06589521
C       0.68697614     -0.04647821      0.00042555
N       0.00153908     -1.13875418      0.01001995
C      -1.39838006     -0.74267732      0.00356699
C      -1.41345683      0.75855824      0.00391149
C      -0.14259485      1.17256744     -0.00117827
H       2.51345581      0.79431468      0.33329726
H       2.51324686     -0.88690861      0.13854533
H      -1.91066942     -1.15139295     -0.87584138
H      -1.91682380     -1.15838667      0.87557339
H      -2.30185846      1.37264025      0.00101150
H       0.22438987      2.18851476     -0.01448059
