14
b3lypvtz=-167311.94208834
N       0.93953958     -1.70712557     -0.06848610
C       0.65101057     -0.49997355      0.14311556
C       1.32037244      0.86351379     -0.01920693
C      -0.10886020      1.45953201     -0.18497553
C      -0.71218546      0.14975658      0.40623156
N      -1.93283912     -0.37016120     -0.16399098
H       1.92120374     -1.81747988     -0.32915911
H       2.01836454      0.97090224     -0.84892120
H       1.81086209      1.19307764      0.89860670
H      -0.33219867      2.38384442      0.34277055
H      -0.37953472      1.57229040     -1.23465649
H      -0.85396918      0.27020098      1.48402631
H      -1.76665468     -0.68680545     -1.11336887
H      -2.24671293     -1.18232341      0.35425654
