11
b3lypvtz=-202363.03200658
N       2.63186650     -0.14601880     -0.00616784
C       1.34076801      0.25914506      0.01170730
C       0.24063432     -0.52141694      0.00914665
C      -1.07886950      0.11248281     -0.00275170
O      -1.28787451      1.30106295     -0.00656337
O      -2.14531691     -0.74616504     -0.00674811
H       3.37076411      0.51919847      0.12087322
H       2.87148024     -1.11726956      0.08575064
H       1.19226560      1.33276742      0.00738890
H       0.32505737     -1.60233940      0.01102143
H      -1.83597321     -1.65861397     -0.00497311
