19
b3lypvtz=-158777.24239806
C      -2.75435735     -0.25147784      0.15656717
C      -1.44174051      0.36698143     -0.30832276
N      -0.30807274     -0.43694676      0.13246733
C       1.01810173     -0.01430871     -0.32558931
C       2.02852883     -1.10591213      0.02394230
C       1.47693969      1.35216879      0.20721773
H      -3.60648497      0.32932007     -0.20013032
H      -2.80875727     -0.28020827      1.24779411
H      -2.84787164     -1.27375723     -0.21072703
H      -1.41911091      0.39650180     -1.40164273
H      -1.39865383      1.41407811      0.02981742
H      -0.31179911     -0.51758814      1.14425763
H       0.95334703      0.05219593     -1.41697160
H       2.11565848     -1.21674700      1.10872881
H       3.01992616     -0.86536600     -0.36312359
H       1.71226346     -2.06391347     -0.38755536
H       0.77637820      2.14562409     -0.05478578
H       2.45222701      1.62498961     -0.20144343
H       1.56734672      1.32722472      1.29692240
