14
b3lypvtz=-169690.47095975
C      -2.33982285      0.41157493     -0.15435620
C      -1.14138271     -0.37793649      0.32928245
O       0.03472161      0.22496749     -0.19052321
C       1.21299189     -0.44844847      0.21165740
C       2.38578576      0.20778846     -0.35234386
C       3.36645662      0.72779117     -0.80390523
H      -3.26193811     -0.02835360      0.22858430
H      -2.28117302      1.44500688      0.18771118
H      -2.38311131      0.41326855     -1.24365240
H      -1.20412784     -1.42282455     -0.00549180
H      -1.10138154     -0.38856931      1.42746995
H       1.18831329     -1.49697852     -0.11864403
H       1.29371071     -0.46038115      1.30825707
H       4.23095752      1.19309463     -1.20710971
