12
b3lypvtz=-168945.56087644
C       2.61602558      0.78174452     -0.00012759
C       1.91009697     -0.58247514      0.00021561
C       0.45829463     -0.48631922      0.00005728
C      -0.74187624     -0.36749454     -0.00005033
C      -2.17900296     -0.29203250     -0.00018399
O      -2.81158166      0.73907205     -0.00015981
H       2.34201358      1.36033039      0.88133164
H       2.34219927      1.35978993     -0.88199912
H       3.69754452      0.64439147      0.00002723
H       2.21837246     -1.16550186      0.87325329
H       2.21854976     -1.16603655     -0.87240098
H      -2.68745291     -1.27374655     -0.00032023
