13
b3lypvtz=-179739.65080316676
C      -2.93480169      0.58083106     -0.05422250
C      -1.82286372     -0.14001250      0.02402365
O      -0.59174581      0.42975881      0.09776813
C       0.50947401     -0.39733363      0.17921745
N       1.67567684      0.21052663      0.24683414
C       2.94986985     -0.21510163      0.33468650
H      -3.88829942      0.08016831     -0.11116021
H      -2.91370364      1.66101715     -0.06265474
H      -1.83047367     -1.22465785      0.03370748
H       0.39844129     -1.46716645      0.18557493
H       1.57375276      1.22037598      0.22730009
H       3.71859681      0.53127356      0.37472355
H       3.15607639     -1.26967943      0.36164442
