13
b3lypvtz=-203101.81342448
C      -1.24903829      1.04660536     -0.55987682
C      -0.34350993     -0.02974075      0.02244424
O      -0.99287543     -0.50193456      1.19414253
O      -0.11468353     -1.08361735     -0.88778384
C       1.02310014      0.53459593      0.39978342
N       2.14662097      0.19034149     -0.05783945
H      -0.83809418      1.41255475     -1.49933349
H      -2.24218194      0.62928073     -0.73640496
H      -1.35233445      1.87934197      0.13497673
H      -0.42638860     -1.17036273      1.59847027
H      -0.96913899     -1.43088281     -1.16561115
H       0.97605352      1.30502419      1.17217000
H       2.02459772     -0.53800721     -0.76577047
