10
b3lypvtz=-217402.63022561
C      -2.16798905     -0.36748478      0.00018528
C      -0.89590199     -0.01071874     -0.00028582
F      -0.52951804      1.28164462     -0.00077367
O       0.12233589     -0.89635593     -0.00039734
C       1.48658330     -0.63085358      0.00000405
N       2.13874261      0.43567469      0.00052270
H      -2.93480529      0.38881835      0.00014579
H      -2.43288094     -1.41128874      0.00060329
H       1.97641207     -1.59849914     -0.00027282
H       1.57356844      1.27702225      0.00067754
