16
b3lypvtz=-168083.19397769
C       1.98537106      1.07989105     -0.22381275
C       1.15705698      0.08286695      0.10705821
N       1.49640098     -1.26890792     -0.00996662
C      -0.26233643      0.31912774      0.55366241
C      -1.31238290     -0.15138913     -0.46026643
N      -2.66015512      0.03606483      0.08724694
H       1.65185844      2.10590328     -0.19567166
H       3.00201070      0.89529845     -0.54737310
H       2.48174569     -1.45118062     -0.12541208
H       1.08799796     -1.86995713      0.69032545
H      -0.39777419      1.38425120      0.74896984
H      -0.44932100     -0.20083763      1.49949085
H      -1.17478620     -1.21523506     -0.65746168
H      -1.14018794      0.37074267     -1.41101012
H      -3.35333125     -0.34929906     -0.54310749
H      -2.87039680      1.02452937      0.17305323
