15
b3lypvtz=-157227.15730717
N      -1.87223489     -0.35976809     -0.30540591
C      -0.52731649     -0.09493581      0.08432798
C       0.55626915     -1.11174849      0.48417493
C       1.62069529     -0.23870540     -0.25494401
C       0.52020506      0.74637463     -0.65112378
C      -0.15946556      1.26804160      0.58534467
H      -1.93498799     -1.17585455     -0.90235199
H      -2.47176297     -0.51364285      0.49733311
H       0.69730347     -1.27887310      1.55510177
H       0.41544961     -2.07682966     -0.00396333
H       2.06756298     -0.75565124     -1.10286499
H       2.42051955      0.17184434      0.36461001
H       0.43240890      1.25723922     -1.59957392
H       0.40134489      1.39049080      1.50688655
H      -0.91601500      2.02015460      0.40783590
