10
b3lypvtz=-245723.71007125
O       1.26131566     -1.34572326      0.72752054
C       0.73288334     -0.99397594     -0.45852377
C      -0.14790467     -0.02637008     -0.73200519
C      -0.76940015      0.91838192      0.22795911
F      -0.31822015      2.20031885      0.03608970
F      -0.45557926      0.59266716      1.54209013
H       0.89806171     -0.77807016      1.42088317
H       1.11142394     -1.62298827     -1.25419298
H      -0.45364534      0.09934072     -1.76099088
H      -1.85893509      0.95631907      0.17097017
