9
b3lypvtz=-201532.61456444
C      -0.39767006      1.19957484     -0.05669636
N       0.86295570      1.08172773     -0.02266653
O       1.39586003     -0.25489098     -0.02527859
C       0.46057181     -1.25875274     -0.06666818
C      -0.84223021     -1.05309943     -0.10082504
O      -1.36391304      0.24912061     -0.09669749
H      -0.79693131      2.20492594     -0.05457378
H       0.91040789     -2.23942795     -0.06823038
H      -1.59865082     -1.81617802     -0.13366366
