12
b3lypvtz=-189834.81205589
C       1.79968144      0.45974943      1.07531363
N       1.29786434      0.57764111     -0.08087238
C      -0.02236804      0.15190911     -0.30548881
C      -0.27142141     -0.62801784     -1.55866647
N      -0.91099687      0.52027361      0.53852431
O      -2.19415754      0.07071108      0.16638118
H       2.80076496      0.84335773      1.25431649
H       1.27030877     -0.00850429      1.90814081
H      -1.19681510     -0.30504376     -2.03308509
H      -0.38073276     -1.69012942     -1.32643803
H       0.56586398     -0.50463647     -2.24101160
H      -2.75789177      0.51268972      0.80878594
