13
b3lypvtz=-179759.6194724
C      -0.69609262      0.97530711      0.19840940
C       0.53121335      0.05361641      0.54030864
C      -0.26244227     -1.12722834     -0.06828392
C      -1.40168360     -0.25248161     -0.37310762
O      -0.56362054     -0.76238453     -1.42396269
N       1.80536051      0.44552812     -0.01974871
H      -0.50226974      1.77060920     -0.52023524
H      -1.17013088      1.39050605      1.08679338
H       0.63496090     -0.06063808      1.61991310
H      -0.21782251     -2.18502017      0.15659768
H      -2.45713591     -0.47557181     -0.43395282
H       1.75680746      0.41404863     -1.03259483
H       2.54285585     -0.18629098      0.26986366
