12
b3lypvtz=-166533.52336935
C      -1.51401230      0.25210177     -0.77706887
C      -0.12151404     -0.06662177     -0.44254725
C       1.01095002     -0.32850850     -0.11888096
C       2.35167803     -0.66360822      0.25065162
N       3.23421580      0.12644196      0.72063314
N      -2.44383215      0.25908968      0.35787521
H      -1.55357138      1.23169374     -1.25868663
H      -1.87984596     -0.46490538     -1.51523888
H       2.63509396     -1.70715060      0.11055355
H       2.85643674      1.07205272      0.80641765
H      -2.13970844      0.93435221      1.04991770
H      -2.43589028     -0.64493764      0.81637373
