14
b3lypvtz=-146425.13733614
C      -2.16992482     -0.01968207      0.00000249
C      -0.83555317      0.00837564     -0.00000028
C       0.00720397      1.20042582     -0.00000151
C       1.30656901      0.88707373     -0.00000030
C       1.53509062     -0.60105875      0.00000334
C       0.10131574     -1.19435737     -0.00000298
H      -2.75075971      0.89357850      0.00000396
H      -2.72126303     -0.95101689      0.00000397
H      -0.39543013      2.20431890     -0.00000299
H       2.11826306      1.60219534     -0.00000017
H       2.11323966     -0.91554533      0.87364527
H       2.11324958     -0.91554944     -0.87363041
H      -0.07347154     -1.82044663      0.87570736
H      -0.07346625     -1.82043647     -0.87572175
