14
b3lypvtz=-190644.67890789
C       2.65275592     -0.26554559     -0.00870780
C       1.30793558      0.44901744      0.02789093
N       0.21897608     -0.51219754      0.01118062
C      -0.97506509     -0.08735760      0.00236345
N      -1.43032343      1.20808421      0.03976930
O      -2.01464678     -0.96276664     -0.00058572
H       2.73596597     -0.87546916     -0.90893203
H       3.47715624      0.44991523      0.00368206
H       2.75411742     -0.92626017      0.85287960
H       1.24594142      1.13211827     -0.83437097
H       1.25671712      1.07911182      0.92682328
H      -2.38824922      1.35125397     -0.23286903
H      -0.78675942      1.92154166     -0.25504952
H      -1.60905581     -1.83964291      0.02135983
