16
b3lypvtz=-196388.89937059
C      -2.82920387     -0.40298399      0.08843607
N      -1.42967236     -0.36385298     -0.31129702
C      -0.70357692      0.78386062      0.22108079
C       0.76159307      0.77522043     -0.20972162
C       1.52160048     -0.43017434      0.30830651
F       2.85725318     -0.35528520     -0.10188650
H      -3.38981893      0.51407542     -0.15295454
H      -3.32589436     -1.24430118     -0.39498896
H      -2.89661709     -0.55518875      1.16767849
H      -1.36438412     -0.36186414     -1.32275524
H      -1.15905152      1.74471520     -0.07020937
H      -0.76536735      0.73761859      1.31341852
H       0.83003145      0.79587375     -1.30168896
H       1.24883117      1.68317156      0.15257984
H       1.51665380     -0.46081710      1.40094538
H       1.10686638     -1.36232689     -0.07243641
