14
b3lypvtz=-167321.03709142
N      -2.14582771      0.04261836     -0.07006429
C      -0.75963696      0.10506465      0.00075847
C       0.05120319      1.16536551      0.01531176
C       1.48806158      0.73453222     -0.03484728
N       1.41200878     -0.72410878      0.19406088
C       0.03745038     -1.17150109     -0.05578312
H      -2.55609181     -0.74056380      0.41667300
H      -2.62059463      0.90300126      0.15718819
H      -0.25718618      2.20075892      0.04005543
H       1.95457291      0.98552730     -1.00121635
H       2.09865053      1.21278662      0.73939963
H       2.07941627     -1.22828394     -0.37025002
H      -0.29280438     -1.89030279      0.70611656
H      -0.10500195     -1.65876045     -1.03297485
