15
b3lypvtz=-157261.99174486
C      -1.37773868      0.30353485     -0.51067019
C      -1.21451418     -0.97624818      0.34698751
C       0.28031779     -1.09207202      0.50013131
C       0.90549340      0.03941234      0.15342016
C      -0.06815222      1.09488884     -0.31351977
N       2.24950627      0.37152378      0.29316144
H      -1.47639918      0.02310559     -1.56050190
H      -2.26223571      0.88218191     -0.24504784
H      -1.71238035     -0.86923381      1.31897461
H      -1.66769241     -1.84737939     -0.13321254
H       0.76909895     -1.96862144      0.90544909
H      -0.16376700      1.87483219      0.44994906
H       0.26421317      1.59483349     -1.22854158
H       2.86552040     -0.41205013      0.44964376
H       2.60872975      0.98129197     -0.42622314
