12
b3lypvtz=-189817.0530546
C       0.22351194      1.70632687     -0.03410769
C      -0.16091251      0.42787499     -0.02617111
C       0.73248436     -0.77916652     -0.07208209
N       2.14602974     -0.41388199      0.01289910
N      -1.58583497      0.25175257      0.02233163
O      -1.95267266     -0.90617906     -0.01665202
H      -0.53019521      2.48080664      0.00601260
H       1.26671586      1.97852362     -0.09424090
H       0.39504987     -1.47987929      0.70115184
H       0.55985904     -1.29436859     -1.02033228
H       2.72526736     -1.19712567     -0.26059630
H       2.39784719     -0.18506756      0.96749422
