14
b3lypvtz=-190631.03254722
N      -2.71424279     -0.46133305      0.06352646
C      -1.60353059      0.34101847      0.06283558
N      -0.44941979     -0.07073457     -0.25647350
C       0.64604833      0.88100334     -0.30117625
C       1.84991900      0.29365922      0.42977293
O       2.22093689     -0.96081269     -0.11572326
H      -2.54983827     -1.45342005     -0.00237823
H      -3.49657092     -0.18255336      0.62929548
H      -1.81757997      1.38543884      0.31989188
H       0.92725141      1.04410676     -1.34647718
H       0.38115911      1.85613443      0.13419164
H       2.71147333      0.95627740      0.32925723
H       1.61673203      0.20253479      1.49939636
H       1.39339823     -1.43880953     -0.25679814
