11
b3lypvtz=-179037.71531712
N       2.05051382     -0.15603113      0.00000099
C       0.80253092     -0.01410090     -0.00000182
C      -0.10820214      1.20965220      0.00000188
C      -1.47516390      0.58520466      0.00000065
C      -1.31612419     -0.73115929     -0.00000039
O       0.00092838     -1.14427600     -0.00000069
H       2.51630637      0.74705734      0.00000095
H       0.08634181      1.82987350      0.87885764
H       0.08634254      1.82987483     -0.87885272
H      -2.41408536      1.11203094     -0.00000051
H      -2.03511224     -1.53341014     -0.00000097
