13
b3lypvtz=-179811.00228873
C       2.17463596     -0.40015017      0.08100501
C       0.68990831     -0.41590248     -0.10838929
C      -0.06191722      0.67672052      0.01724686
N      -1.45679808      0.77948225     -0.13668902
C      -2.34936621     -0.20599376     -0.44619273
O      -2.08622359     -1.37103537     -0.64712123
H       2.69020080     -0.73776471     -0.82244661
H       2.54472307      0.59652507      0.32716040
H       2.47619392     -1.07950249      0.88325158
H       0.21991496     -1.35624450     -0.35650753
H       0.39099167      1.62943871      0.26561798
H      -1.85248297      1.69488782     -0.00243553
H      -3.37978064      0.18953912     -0.49572613
