10
b3lypvtz=-245720.95272559
C       1.46637979     -0.33141014      0.21325173
C       0.30131580      0.28806073      0.09212549
C      -1.01028862     -0.43203751     -0.08107689
F      -1.75617056      0.22851022     -1.04082614
F      -0.83791019     -1.70896996     -0.49712122
O       0.17273413      1.64213992      0.21545001
H       2.37387451      0.23333211      0.36760549
H       1.51903124     -1.40658523      0.16517670
H      -1.61558081     -0.44397674      0.82887363
H      -0.61338530      1.93093659     -0.26345880
