12
b3lypvtz=-192258.9038631
O       1.93935461     -1.08217128      0.00569079
C       0.85013050     -0.25903861     -0.03099324
C       0.75639995      1.06457124     -0.12591101
O      -0.54388606      1.53216725     -0.17257385
C      -1.38897203      0.39571699      0.14072134
C      -0.52316421     -0.86774512     -0.02913698
H       2.74378763     -0.55765155     -0.06606187
H       1.52522460      1.81768722     -0.19777684
H      -1.72489440      0.50369963      1.17525439
H      -2.25367762      0.43134520     -0.51846774
H      -0.71494937     -1.39948026     -0.96686304
H      -0.66525358     -1.57900072      0.78601806
