16
b3lypvtz=-168063.60924386
N      -2.34328465     -0.25603490     -0.06717287
C      -1.18095405      0.53975924      0.33983168
C       0.01924765      0.24621602     -0.54811697
C       1.32300847      0.95883279     -0.10951998
C       1.78673863     -0.40826676      0.44200347
N       0.70011660     -1.06275346     -0.32729334
H      -3.14655422     -0.03353474      0.50828091
H      -2.16554800     -1.24571168      0.06229618
H      -0.89239149      0.40085747      1.39385310
H      -1.44308791      1.59501193      0.21880336
H      -0.28010576      0.38656278     -1.58916096
H       1.21148903      1.76655269      0.61254714
H       1.92070052      1.30958534     -0.94807075
H       1.68803638     -0.48223000      1.52980930
H       2.78795987     -0.74182244      0.16324004
H       0.16596693     -1.75999428      0.17821372
