9
b3lypvtz=-224926.96188939
N      -1.47117683      0.15358590      0.05671310
C      -0.17451336      0.48469189      0.07260041
O       0.29758683      1.60138936      0.21921060
C       0.77342842     -0.72013564     -0.12030578
O       0.39044797     -1.84848439     -0.27100007
O       2.04736578     -0.34414786     -0.09707557
H      -2.17659145      0.86028357      0.17366530
H      -1.72485779     -0.81197400     -0.07395055
H       2.03831043      0.62479117      0.04004256
