13
b3lypvtz=-177362.06481494
C      -2.67212209      0.07304156     -0.23116189
N      -1.42841698     -0.17239340      0.46476369
N      -0.29798426      0.21096122     -0.11841160
N       0.73115240     -0.32258767      0.37098481
C       1.90920399      0.14412098     -0.21446363
C       3.10038202     -0.30937933      0.17413750
H      -2.89665315     -0.69119367     -0.98307843
H      -2.60475618      1.03892495     -0.72724350
H      -3.48726869      0.10561844      0.49089030
H      -1.34665316     -0.96218970      1.09861013
H       1.80289797      0.89021693     -0.99818304
H       3.18203783     -1.04956098      0.95822757
H       4.00818030      0.05290644     -0.28507192
