10
b3lypvtz=-212390.82415594
N      -1.64541090      1.06220823      0.95983450
C      -1.00260927      0.32775743      0.15409020
O      -1.56747089     -0.39464450     -0.84287760
C       0.46279859      0.22859691      0.28086361
N       1.08083748     -0.51730820     -0.54207867
O       2.44960057     -0.53686630     -0.33259169
H      -2.64407069      1.03569852      0.75631984
H      -0.86017946     -0.86683759     -1.31030492
H       0.95182974      0.79314568      1.06715397
H       2.77477484     -1.13175017     -1.01730924
