15
b3lypvtz=-180548.13901685
C      -2.77170845     -0.68241652      0.12949403
C      -1.75999436      0.15161363     -0.12704816
N      -0.43076128     -0.18569695     -0.30349005
C       0.61028189      0.76568599      0.04498123
C       1.95099799      0.30404603     -0.48810003
O       2.26423535     -0.93235571      0.15569882
H      -3.78524457     -0.31445978      0.16756630
H      -2.61717178     -1.74352195      0.28048231
H      -1.95710991      1.21042056     -0.26509337
H      -0.19340056     -1.13135600     -0.03937654
H       0.69624640      0.91637464      1.13058619
H       0.36640426      1.73294364     -0.40059969
H       1.88585798      0.17136235     -1.57296627
H       2.71188097      1.06193915     -0.26961524
H       3.02938607     -1.32477906     -0.27271954
