11
b3lypvtz=-207327.78547061
C      -2.57891552     -0.24652925     -0.00000157
C      -1.36228163      0.27358779     -0.00000327
O      -0.25811788     -0.55020131      0.00000410
C       0.99688205     -0.06744860      0.00000142
C       2.08325130     -0.82161858     -0.00000228
F       1.06628060      1.27275057      0.00000373
H      -3.43476708      0.41014851     -0.00000689
H      -2.74235879     -1.31444453      0.00000508
H      -1.15611803      1.33230985     -0.00000996
H       3.05521787     -0.35855534     -0.00000253
H       1.99069312     -1.89453811     -0.00000483
