13
b3lypvtz=-203106.4313922
C       2.08293199     -0.91972085     -0.00643860
C       0.99576503      0.11895112      0.00244670
N       1.10769231      1.38253571      0.02551558
O      -0.22014302     -0.46803989     -0.02390556
C      -1.36352486      0.41127574     -0.01457635
O      -2.50719301     -0.36865178     -0.07489716
H       2.00245272     -1.53469406     -0.90370264
H       1.97395663     -1.58386017      0.85196964
H       3.06568613     -0.45476702      0.02274355
H       2.08455064      1.65732459      0.04056915
H      -1.30721899      1.03390508      0.88106959
H      -1.34082513      1.04185652     -0.90063407
H      -2.60051844     -0.85300200      0.75193617
