16
b3lypvtz=-168065.98860291
N       2.66875175     -0.01415772     -0.86110410
C       1.51746069      0.16503825      0.01247893
N       0.33093112      0.26761077     -0.82138393
C      -0.89493919      0.46537630     -0.10258842
C      -2.17414238      0.08662640     -0.78996707
C      -1.65222930     -0.75566016      0.34528706
H       3.53175067      0.01921428     -0.33332540
H       2.61794386     -0.91563390     -1.32124277
H       1.70196042      1.06950368      0.61430364
H       1.34464437     -0.65807846      0.71892690
H       0.47755518      0.99753704     -1.50985279
H      -0.94749145      1.32577437      0.56659911
H      -2.08480937     -0.31814164     -1.78813123
H      -3.04808974      0.69984009     -0.61995026
H      -1.22000370     -1.71309346      0.09099930
H      -2.16919293     -0.72175583      1.29425103
