11
b3lypvtz=-202358.58533012
C       2.15295431     -0.57151399      0.00000768
N       0.70428968     -0.61000929     -0.00000468
C      -0.06939548      0.49167960     -0.00002182
O       0.30567046      1.65236071     -0.00005858
C      -1.56891631      0.18047381     -0.00002307
O      -2.01917228     -0.93547093      0.00008179
H       2.55651951     -1.06278876     -0.88696685
H       2.46060819      0.47098260     -0.00038002
H       2.55652086     -1.06211138      0.88736111
H       0.21628399     -1.49304906      0.00005967
H      -2.19681492      1.08841671     -0.00008623
