15
b3lypvtz=-180566.24477988
C       2.33582071     -0.76111865     -0.00000442
C       1.12070364      0.14426135     -0.00000935
O       1.22842953      1.34987491     -0.00002287
C      -0.23693233     -0.53988229     -0.00000085
C      -1.43249212      0.41750289      0.00000025
N      -2.74924113     -0.22042582      0.00000377
H       3.24350188     -0.16271087     -0.00002537
H       2.32474567     -1.41199875      0.87745565
H       2.32472738     -1.41203435     -0.87743773
H      -0.28011031     -1.20600252      0.87003103
H      -0.28011629     -1.20600662     -0.87002939
H      -1.36925153      1.07310379     -0.86904986
H      -1.36924828      1.07310634      0.86904829
H      -2.86383524     -0.81410175     -0.81347447
H      -2.86383158     -0.81410066      0.81348333
