15
b3lypvtz=-203865.11793773
C      -0.96887485      1.31392316      0.56954719
C      -0.69617568      0.20476619     -0.44454487
N      -1.73146377     -0.82442253     -0.33941673
C       0.72418519     -0.37300861     -0.30930326
O       0.96857091     -0.96571649      0.95203099
O       1.64366743      0.66260719     -0.57900480
H      -0.98796173      0.91948982      1.58974055
H      -1.94834558      1.74898645      0.37858309
H      -0.21286436      2.09594636      0.51281435
H      -0.75689781      0.63233389     -1.44819177
H      -1.65619709     -1.48860143     -1.10151548
H      -1.59949544     -1.35214738      0.51740574
H       0.84519602     -1.19876959     -1.01837374
H       0.91672708     -0.26899817      1.61755489
H       2.53157770      0.29101912     -0.54009115
