13
b3lypvtz=-179774.38144452
N       2.13516553     -0.43103714     -0.39680051
C       1.43079289      0.50995077      0.06543278
C       0.02213253      0.39471832      0.57806099
C      -1.10228557      0.95695263     -0.32868649
C      -1.61380903     -0.49343792     -0.34583577
O      -0.50598079     -0.94424630      0.47580092
H       1.59501527     -1.30136732     -0.36267365
H       1.85705212      1.51670910      0.10801764
H      -0.01867494      0.75962525      1.61089523
H      -0.76171199      1.33929290     -1.28829475
H      -1.75986833      1.68424337      0.14019389
H      -2.56985638     -0.65984530      0.15391129
H      -1.62079933     -0.98941536     -1.31764156
