9
b3lypvtz=-232483.94576392
C      -1.58120166      1.04729384     -0.00013913
C      -0.71958407      0.04173684     -0.00003670
F      -1.16194030     -1.22573906      0.00002868
C       0.76324660      0.15282953      0.00001302
N       1.49997899      1.16214616     -0.00004446
F       1.34017067     -1.05552989      0.00009061
H      -2.64326962      0.85468044     -0.00017056
H      -1.24430381      2.07149038     -0.00019246
H       0.96901719      2.02701376     -0.00010898
