13
b3lypvtz=-203090.96546741
C      -2.27460009     -0.24457049      0.45826641
N      -1.23177231     -0.30425728     -0.57379119
C       0.06326337      0.06722967     -0.18317046
O       0.25154159      1.42994183     -0.01492075
C       1.10346620     -0.74565293      0.00237181
O       2.38824402     -0.31873923      0.21696268
H      -2.28624907      0.75220910      0.89621682
H      -3.24681592     -0.42353423     -0.00064094
H      -2.12080403     -0.96940258      1.26653750
H      -1.22868736     -1.19063905     -1.05699705
H      -0.28034976      1.87540108     -0.68638366
H       1.00556173     -1.82010371     -0.01372982
H       2.37180262      0.64685883      0.22833765
