12
b3lypvtz=-166566.41005528756
C       1.72850851     -0.81569169      0.05324357
C       0.42524252     -0.07014700     -0.00574722
N      -0.68706481     -0.66562848      0.11408888
C      -1.94315422      0.05039373      0.05999900
C       0.53982013      1.36980307     -0.20783377
N       0.65007688      2.50525696     -0.37003076
H       1.52709062     -1.87409552      0.19760026
H       2.34600049     -0.44357121      0.87353547
H       2.29588814     -0.67116587     -0.86844638
H      -1.85262458      1.13049800     -0.09091171
H      -2.54531257     -0.37641414     -0.74459160
H      -2.48447110     -0.13923785      0.98909428
