14
b3lypvtz=-167313.23119987
C       2.34717247      0.00277750     -0.00123659
N       1.20597508      0.79801595      0.42788374
C       0.05836043      0.31465510      0.24572475
C      -1.34519890      0.83715909      0.52242574
C      -1.84178211     -0.42049795     -0.24595318
N      -0.44190193     -0.88314068     -0.28082105
H       2.23001220     -1.06801313      0.20986698
H       3.24260367      0.35125437      0.51228490
H       2.52623589      0.11428355     -1.07695249
H      -1.61204261      0.87084382      1.57689820
H      -1.57019226      1.79466533      0.05847037
H      -2.51299143     -1.08686336      0.29591143
H      -2.26493060     -0.19615232     -1.22697912
H      -0.02121992     -1.42878727     -1.01722370
