15
b3lypvtz=-180533.25176874033
C       2.59416089     -0.02790462     -0.07600042
C       1.20636048      0.34263434      0.40171606
O       1.05986785      1.19870406      1.32233257
C       0.10061801     -0.25494380     -0.16852563
N      -1.13639209      0.26035380      0.45457566
H      -1.11499805      1.28416089      0.38072796
H      -1.04924750      0.12630240      1.46869167
C      -2.40149768     -0.30053198     -0.06517649
H       3.17395197     -0.41256105      0.76477700
H       2.58029797     -0.77493567     -0.87103038
H       3.10209016      0.86793891     -0.43724548
H      -0.01166974     -0.98892271     -0.94391998
H      -2.39075295     -1.37705274      0.08422263
H      -2.46598087     -0.08438138     -1.12838634
H      -3.24680851      0.14113956      0.45816410
