12
b3lypvtz=-194868.85466423
C      -2.49542418     -0.02750265     -0.00029664
C      -1.32499392     -0.67276590      0.00161938
C      -0.02768393     -0.05649817      0.00433520
F      -0.01121798      1.31243114      0.00167252
C       1.16039203     -0.68060126      0.00664950
N       2.38720134     -0.05026445     -0.07027865
H      -2.54599442      1.05213297     -0.00483169
H      -3.42866512     -0.57157980      0.00196166
H      -1.30642292     -1.75734128      0.00299760
H       1.17392488     -1.76102274      0.00980304
H       2.37645969      0.93737648      0.13199948
H       3.15914953     -0.53357635      0.35783059
