14
b3lypvtz=-167326.96834862
C       2.06470331     -0.35034534      0.09463520
N       1.03051410      0.59865364     -0.30788148
C      -0.25615327      0.43315267      0.35240272
C      -1.21830442      1.55512693     -0.04664859
C      -0.87290802     -0.89295287      0.09172565
N      -1.31282922     -1.92844692     -0.15307979
H       2.29258454     -0.20933565      1.15290707
H       1.79400329     -1.40306583     -0.05898526
H       2.97299274     -0.14177410     -0.46935573
H       0.90201096      0.57550099     -1.31269696
H      -0.07872898      0.48601486      1.43051542
H      -2.16981542      1.45749948      0.47443942
H      -1.41562019      1.52859305     -1.11919628
H      -0.76673642      2.51400908      0.20156261
