12
b3lypvtz=-168921.94941431
C       2.71665145     -0.52860200      0.15951150
C       1.58043403     -0.35848140     -0.19032312
C       0.22402323     -0.14584925     -0.60141081
C      -0.54630451      1.08731478     -0.13302816
C      -0.90816942     -0.26876384      0.38321123
O      -2.05375641     -0.90962455     -0.10129296
H       3.72060190     -0.68383410      0.46554163
H      -0.02359641     -0.48701903     -1.59872652
H      -1.21133376      1.53552827     -0.85790345
H      -0.03575189      1.77488841      0.52598664
H      -0.63636012     -0.51237763      1.40504913
H      -2.82643808     -0.50317965      0.30513994
