18
b3lypvtz=-171253.42808973
C       1.79737695     -0.76931139     -0.41819807
C       0.67869299      0.27811273     -0.42799671
C       0.92004525      1.34525404      0.64567010
C      -0.69797965     -0.39668990     -0.30840936
C      -1.87832259      0.54888738     -0.51045991
O      -0.75818706     -1.02435575      0.97911628
H       2.77055953     -0.29949000     -0.57087952
H       1.65573836     -1.50866460     -1.20962556
H       1.82091954     -1.29932857      0.53419879
H       0.68576570      0.76930349     -1.40724868
H       0.19367182      2.15687243      0.59101915
H       1.91139377      1.78520587      0.52454533
H       0.86295762      0.90818968      1.64265959
H      -0.74362886     -1.17206418     -1.08567886
H      -2.82039613     -0.00431538     -0.48012761
H      -1.82071983      1.04498115     -1.48157648
H      -1.91218692      1.31019366      0.26850945
H      -1.60170248     -1.47834867      1.06000508
