15
b3lypvtz=-157230.06556885
C       1.20718009     -1.38663050      0.15612627
C       0.76635567     -0.15007558     -0.08806965
C       1.64409384      1.06727693     -0.02757881
N      -0.54399639      0.12794081     -0.52402638
C      -1.68576483     -0.61272228     -0.03474029
C      -1.49037294      0.81749560      0.34317474
H       0.56073764     -2.24963669      0.08068675
H       2.24417975     -1.56216302      0.40150765
H       1.67041471      1.56337473     -1.00017109
H       1.25869684      1.79446321      0.69171000
H       2.65975429      0.80451526      0.26078880
H      -2.42597090     -0.88401446     -0.77701160
H      -1.51552643     -1.35163571      0.74056841
H      -2.08141220      1.59653081     -0.12179364
H      -1.18892616      1.01228490      1.36711485
