11
b3lypvtz=-199975.66733742
N       2.53389353     -0.19965125     -0.00211524
C       1.26600499      0.24743466      0.00039713
N       0.25868603     -0.54657597     -0.00448464
C      -0.99838930      0.10465713     -0.00519136
N      -2.01237507     -0.80216544     -0.00564351
O      -1.18873750      1.31077306      0.00227948
H       3.30763363      0.43698885      0.01593783
H       2.71263027     -1.18943909      0.00547874
H       1.14495752      1.33167888      0.00378267
H      -2.95806560     -0.47277497     -0.06343105
H      -1.80711049     -1.78154386     -0.07207407
