16
b3lypvtz=-170482.65227926
C      -0.31352737      1.66686551     -0.18748154
C       0.05437639      0.43391917      0.15433326
C      -0.88309376     -0.74365754      0.25789274
C      -2.33452805     -0.49878691     -0.14034128
C       1.50136220      0.13072209      0.46195393
O       2.07092751     -0.82247642     -0.44046056
H       0.41102617      2.47030545     -0.23981589
H      -1.33799746      1.92623072     -0.41644127
H      -0.84359327     -1.11149722      1.29056765
H      -0.46356187     -1.55621964     -0.34221351
H      -2.41424560     -0.16857345     -1.17755922
H      -2.80354484      0.26004499      0.48834199
H      -2.91582445     -1.41604098     -0.03914855
H       2.08492904      1.05691291      0.47121368
H       1.59148438     -0.32962831      1.44864565
H       2.03021998     -0.44712536     -1.32616208
