14
b3lypvtz=-167325.14482492
C       2.55679126     -0.48538287     -0.17243544
C       1.17949764     -0.26253135      0.43343330
N       0.40404275      0.67946554     -0.37399111
C      -0.91609540      0.98196216      0.15719554
C      -1.84704177     -0.13906149     -0.03091839
N      -2.58204850     -1.01441999     -0.15673580
H       3.13198297      0.44346014     -0.19956850
H       3.12348842     -1.20651625      0.41715949
H       2.47115973     -0.86091159     -1.19208111
H       0.63128654     -1.20671744      0.46016951
H       1.27763682      0.07496505      1.47805025
H       0.91668390      1.54475316     -0.49032411
H      -0.92098624      1.23083767      1.23090814
H      -1.32490413      1.84292525     -0.37453277
