13
b3lypvtz=-156454.72369197
C       2.14749077     -0.06803578     -0.13572822
C       0.84565241     -0.21398853      0.07575403
C      -0.36874300     -0.37772212     -0.78279369
C      -1.37063810      0.71156015     -0.42731095
C      -1.16620400     -0.42902426      0.51461722
N       0.08094091     -0.31475942      1.27995241
H       2.54026605     -0.06106507     -1.14180758
H       2.84471869      0.03304866      0.68461782
H      -0.46376590     -0.98195858     -1.67111216
H      -2.28606665      0.68679533     -1.00553106
H      -1.01896043      1.70396816     -0.17023899
H      -1.94056745     -1.11927283      0.81596084
H       0.15587670      0.43045430      1.96362030
