12
b3lypvtz=-187427.3586623898
C      -2.10570044     -0.15870328      0.15666856
N      -1.08487877      0.59999521      0.31872533
C       0.17812477      0.19599397      0.02068538
N       1.12183760      1.12043619      0.25506615
N       2.40171076      1.12238028      0.10716055
N       0.61348066     -1.04097312     -0.49130144
H      -2.04438025     -1.17808187     -0.22875227
H      -3.08519493      0.22549446      0.41394916
H       0.72835717      1.98434996      0.62242657
H       2.63675461      0.19795490     -0.26420201
H       0.22755892     -1.24957231     -1.40549830
H       0.41232991     -1.81927437      0.12674835
