17
b3lypvtz=-181311.48644547
C       1.89346982     -1.10077829      0.11682670
O       0.69825796     -0.62337938     -0.46393579
C       0.05100656      0.42551114      0.26390697
C       0.70378170      1.77849635     -0.00157116
C      -1.41019124      0.39775815     -0.16132958
N      -2.02769987     -0.87068814      0.22405626
H       2.23926581     -1.93060863     -0.49784022
H       1.72527181     -1.46186857      1.13866225
H       2.68002560     -0.33828950      0.14223104
H       0.09780512      0.18774753      1.33448132
H       0.20706817      2.56326410      0.57189941
H       1.75532323      1.77745816      0.28568315
H       0.64122780      2.03060081     -1.06142461
H      -1.93437076      1.20988463      0.34748753
H      -1.45137287      0.60649696     -1.24054026
H      -1.54920618     -1.62539540     -0.25396440
H      -2.99575064     -0.89865090     -0.07156060
