16
b3lypvtz=-170485.13726071
C       1.50508524     -0.00029414      0.00000428
C       0.62884240     -1.21923023     -0.35838697
C      -0.70919094     -1.15186573      0.36549919
O      -1.47094894      0.00028768      0.00000276
C      -0.70874216      1.15213911     -0.36550792
C       0.62931730      1.21898938      0.35837755
H       2.15881391      0.23969498     -0.84081908
H       2.15869977     -0.24054306      0.84084223
H       0.43893766     -1.24773359     -1.43404485
H       1.13540414     -2.15293503     -0.10629724
H      -0.54625809     -1.15907763      1.45202456
H      -1.33317244     -2.01378527      0.12478539
H      -0.54580788      1.15927670     -1.45203353
H      -1.33238740      2.01430411     -0.12480228
H       1.13624368      2.15249311      0.10627625
H       0.43942177      1.24758061      1.43403466
