18
b3lypvtz=-168846.95433264
C      -2.31754214     -0.42526173     -0.12900150
C      -0.92000457     -0.00220402      0.33952339
N      -0.61404716      1.41261499      0.05882479
C       0.16138017     -0.91151850     -0.25749684
C       1.57853578     -0.69875074      0.27849920
N       2.20264678      0.50180612     -0.28415790
H      -3.08533226      0.21882774      0.30507086
H      -2.39685033     -0.35517886     -1.21709227
H      -2.54342621     -1.45474201      0.15829823
H      -0.87962492     -0.10929917      1.42880057
H      -0.63270988      1.57727454     -0.94319063
H      -1.32429199      2.01204371      0.46441747
H       0.17943107     -0.78794456     -1.34578771
H      -0.13207525     -1.94658469     -0.06302200
H       1.54042110     -0.70328248      1.37967193
H       2.18841665     -1.55744623     -0.01324199
H       1.67698844      1.31486369      0.01821633
H       3.15059673      0.59887020      0.05965507
