15
b3lypvtz=-180543.72688479
C      -2.40754942     -0.75255983      0.06913656
O      -1.92273639      0.54036379     -0.26005758
C      -0.59322406      0.76052411     -0.11238776
C       0.34681035     -0.08309313      0.31375829
C       1.78707373      0.31472270      0.42631086
N       2.63180909     -0.56492598     -0.39509839
H      -1.94772276     -1.51833972     -0.56168803
H      -3.47999028     -0.73089276     -0.10665165
H      -2.21211067     -0.99085730      1.11845592
H      -0.35464925      1.77998514     -0.39265668
H       0.11255780     -1.10588550      0.57809397
H       1.88726094      1.38290432      0.18573117
H       2.12149245      0.19667928      1.46196255
H       2.41807331     -0.43080066     -1.37686354
H       3.61110117     -0.33607647     -0.26911369
