11
b3lypvtz=-179025.56665213
C       2.16121661      0.00800594     -0.00001176
C       0.66690985     -0.01105928     -0.00012180
C      -0.18077737     -1.06936509     -0.00085012
O      -1.46229429     -0.66344775     -0.00047826
N      -1.48594940      0.73053907      0.00066724
C      -0.23315905      1.09487233      0.00078241
H       2.56622922     -1.00340077     -0.00456501
H       2.55297849      0.51870075      0.88188741
H       2.55295420      0.52659695     -0.87727292
H      -0.02303090     -2.13497842     -0.00154194
H       0.00210863      2.14863827      0.00156474
