16
b3lypvtz=-170473.09137549
O       2.33575937      0.54851344     -0.70213863
C       1.48796251     -0.18727976      0.17845267
C       0.16367503     -0.42005587     -0.51732538
C      -0.70811517      0.85608410     -0.67948239
C      -1.57037714      0.40097518      0.52761144
C      -0.92826945     -1.00792192      0.42108970
H       3.16342176      0.73579632     -0.25100607
H       1.93921285     -1.15432468      0.43649867
H       1.32941031      0.36465632      1.11473765
H       0.34921117     -0.97768820     -1.43606503
H      -1.26935036      0.85260264     -1.61354738
H      -0.18493436      1.80786177     -0.59745045
H      -2.65196608      0.45760767      0.41090901
H      -1.30275036      0.91279922      1.45184114
H      -1.57132260     -1.72198980     -0.09249212
H      -0.58166748     -1.46783644      1.34826716
