12
b3lypvtz=-187418.43375829514
C       1.28440368      0.31449815     -0.02657769
N      -0.01245555      0.13747937     -0.03871720
C      -1.06596889      0.94128043     -0.31209718
N      -2.31319774      0.42702357     -0.22901640
N      -2.39528124     -0.80131193      0.10741894
N       2.10032075     -0.78210306      0.31791027
H       1.66868426      1.29602704     -0.28197587
H      -0.35443986     -0.80538636      0.20725551
H      -0.91757914      1.96989860     -0.59034359
H      -3.38646788     -1.03921321      0.12637563
H       2.73420018     -1.04804888     -0.42773404
H       2.65778144     -0.61014370      1.14750160
