18
b3lypvtz=-147948.12381946
C       2.19380335     -0.74644244     -0.03932657
C       1.29662470      0.44920479     -0.15677447
C      -0.00478406      0.54076245      0.12963472
C      -0.74257031      1.84139875     -0.06043434
C      -0.84449293     -0.60556672      0.64671701
C      -1.70269916     -1.27418401     -0.43915940
H       3.04323160     -0.53308880      0.61628480
H       2.61544552     -1.01089594     -1.01370024
H       1.68647019     -1.62802743      0.34836650
H       1.78709684      1.34554153     -0.52800147
H      -1.59793930      1.72396479     -0.73188994
H      -1.14274562      2.20503518      0.89126869
H      -0.09618914      2.61493088     -0.47440622
H      -0.21549873     -1.36177068      1.11630661
H      -1.50506472     -0.22792492      1.43372918
H      -1.07412491     -1.71148814     -1.21626279
H      -2.37324753     -0.55956643     -0.91865130
H      -2.31727579     -2.06957986     -0.01359976
