13
b3lypvtz=-179801.98150119
C      -1.97167767      0.46523967      0.32462074
C      -0.56555247      0.25609481     -0.22123925
C       0.40649877     -0.27528278      0.80367335
O       0.10742547     -0.51651956      1.95395232
C       1.83342326     -0.52188952      0.37803457
N       2.21608239     -0.29415068     -0.80670091
H      -2.39243127     -0.46817354      0.69765011
H      -2.62901675      0.84991384     -0.45533400
H      -1.97146029      1.17347151      1.15288800
H      -0.14445919      1.18180633     -0.62459103
H      -0.55779591     -0.43342641     -1.07061433
H       2.46381025     -0.90442822      1.18679765
H       3.20515338     -0.51265546     -0.92923994
