15
b3lypvtz=-180532.49759648
O       1.78646247     -0.33871837     -0.82794893
C       1.42505897      0.44184672      0.30640312
C      -0.07305366      0.36814845      0.51410619
C      -0.72399330     -1.04076613      0.54688497
N      -1.43867179     -0.75057331     -0.72171710
C      -0.98232762      0.66222274     -0.70930138
H       2.73757035     -0.28525166     -0.95126590
H       1.93273084      0.07457155      1.20845613
H       1.71872646      1.49078619      0.16579399
H      -0.31510305      0.97539511      1.38711232
H      -1.37020589     -1.20219715      1.41471432
H      -0.03079067     -1.87959019      0.46261156
H      -2.44183191     -0.86337504     -0.66832655
H      -0.45985370      0.94890106     -1.62367730
H      -1.76481751      1.39860004     -0.50384543
