11
b3lypvtz=-176643.53887574
C       0.85018459      0.46975794      0.42687741
C      -0.44677040      0.28684172      0.08593699
C      -1.28986311      1.39651156     -0.18989576
N      -2.02395703      2.26223261     -0.41419500
N      -0.96257023     -1.05275786      0.00185182
N       1.72290788     -0.54533401      0.64930658
H       1.25239947      1.47165064      0.49335293
H      -1.82240976     -1.14973417      0.52914281
H      -1.17123727     -1.31110580     -0.95662245
H       1.32162121     -1.46683610      0.73343233
H       2.56969466     -0.36122655      1.15524541
