12
b3lypvtz=-194858.75474864
C      -2.82839646     -0.30623192     -0.00018047
N      -1.37492858     -0.40298300     -0.00025156
C      -0.70976883      0.67639713      0.00035630
C       0.75469356      0.72274610      0.00027945
C       1.51588428     -0.36500075     -0.00027349
F       2.85410145     -0.28424046     -0.00033228
H      -3.19639581      0.22031176     -0.88643358
H      -3.19639811      0.22382172      0.88399205
H      -3.26033742     -1.30523390      0.00167329
H      -1.20224549      1.65914740      0.00111771
H       1.23155683      1.69454715      0.00072532
H       1.15205057     -1.38245623     -0.00077474
