15
b3lypvtz=-180547.17260833664
C      -1.81342086     -0.40095774      0.27550874
C      -0.60937088      0.04085810     -0.54430794
C       0.29808952      1.10023974      0.13058941
C       1.28174311     -0.06020624      0.42681564
N       0.55280312     -0.88878366     -0.53779089
O       2.64837688      0.09843196      0.15584968
H      -2.57993276      0.37734158      0.28595819
H      -1.53651211     -0.61564263      1.31015779
H      -2.26401081     -1.30135089     -0.14880010
H      -0.93284134      0.28441574     -1.55919367
H       0.72137686      1.82130931     -0.56696008
H      -0.11477503      1.62605358      0.98935805
H       1.23967383     -0.40423375      1.46386422
H       0.37656805     -1.85445123     -0.28656260
H       2.73223244      0.17697611     -0.80236233
