12
b3lypvtz=-189829.82580286
C      -1.64939087      1.28665210      0.12916955
C      -0.85330088      0.21876756      0.22183997
N      -1.23009657     -1.10925827      0.27765769
O       0.51305899      0.44463330      0.15049903
N       1.28751245     -0.59032476      0.67534391
C       2.52220173     -0.31097301      0.62518577
H      -1.22542634      2.27254333      0.03587794
H      -2.72155637      1.17039307      0.10399113
H      -0.56439951     -1.69897332      0.75331280
H      -2.17960315     -1.24746035      0.58242242
H       2.89976275      0.62450627      0.22264355
H       3.20123776     -1.06050591      1.00750780
