9
b3lypvtz=-232500.3591339
N      -2.68012378      0.20116990     -0.19039501
C      -1.63715951     -0.22800066      0.03236272
C      -0.31315527     -0.77628180      0.29544429
C       0.79866948      0.05425249     -0.33597956
F       0.85389927      1.28080648      0.24739382
F       1.98584619     -0.57297576     -0.09930837
H      -0.25622803     -1.79067766     -0.10157779
H      -0.13407862     -0.82222922      1.37063634
H       0.68801926      0.19018825     -1.41224044
