8
b3lypvtz=-234864.64808342562
C      -0.23922532     -0.27119263      0.02339744
N       0.96494732      0.10433446      0.04180300
O       1.80953388     -0.90076874      0.44427564
N      -1.25760476      0.70486272     -0.38950516
O      -2.40024873      0.26324007     -0.38103701
O      -0.92218936      1.82968973     -0.69748954
H      -0.63516263     -1.24459263      0.27838446
H       2.67994960     -0.48557300      0.41336236
