11
b3lypvtz=-199924.49431005
C      -0.08302543     -0.99831564     -0.06343829
N      -1.11901153     -0.33981485      0.27511872
N      -2.17162828     -1.03220781      0.84045189
N       1.06024496     -0.39913201     -0.59208120
C       1.41296229      0.74036004     -0.16824831
O       2.44795251      1.40801670     -0.69614148
H      -0.03630106     -2.08844059     -0.00624490
H      -2.21065987     -2.01597340      0.58180817
H      -3.03795138     -0.56929666      0.60775565
H       0.94094228      1.28855928      0.64370813
H       2.79647552      0.86917808     -1.42268838
