9
b3lypvtz=-199154.41554965702
C      -0.89570120     -0.63366476     -0.03063002
N      -2.10159680     -0.37253226     -0.44418887
N      -3.15829130     -0.15928567     -0.80139877
N       0.05243905      0.36405933     -0.10697061
C       1.23994741      0.16332326      0.28056272
O       2.18731810      1.12202021      0.21726267
H      -0.73514478     -1.63530437      0.34714511
H       1.63855736     -0.76116909      0.69599176
H       1.77247216      1.91255335     -0.15777398
