15
b3lypvtz=-157231.92078178
C      -1.05329856     -1.38747035      0.79981721
C      -0.67152158     -0.02466081      0.28995892
C      -1.56195769      0.89831839     -0.06130938
C       0.79788099      0.21605565      0.19463060
C       1.53379511      0.14639726     -1.10069087
N       1.27015116      1.43971699     -0.45752406
H      -2.13468023     -1.51010241      0.83904549
H      -0.64072375     -2.17534581      0.16278036
H      -0.65437047     -1.55735219      1.80450766
H      -2.62503217      0.70316789     -0.00308382
H      -1.24096344      1.86626653     -0.41979524
H       1.36072280     -0.13082137      1.05811827
H       0.97259830     -0.02557747     -2.01061682
H       2.54409786     -0.24649122     -1.09894135
H       2.10330168      1.78789889      0.00310305
