12
b3lypvtz=-187451.99442078
N       2.26390848     -0.71683229      0.01705002
C       1.50607431      0.29600253      0.00355484
C       0.02073995      0.29546119     -0.00826505
N      -0.62115484      1.52629246      0.05949841
N      -0.59444792     -0.82783887     -0.04062454
N      -1.98720164     -0.73990227     -0.06084711
H       1.69086907     -1.56602350      0.02744708
H       1.97082237      1.28585427     -0.00368954
H      -1.50086419      1.55824591     -0.43941692
H      -0.03886927      2.32650715     -0.13192779
H      -2.35780231     -1.66830711      0.08394616
H      -2.34000301     -0.12557846      0.67259644
