13
b3lypvtz=-179793.94034378
C       2.16315426     -0.85858749      0.00013037
C       1.11142663     -0.03235879     -0.00006238
O       1.23169029      1.31316608     -0.00029896
C      -0.26965672     -0.52969028      0.00001530
N      -1.21842774      0.31102821     -0.00013033
C      -2.59410145     -0.16511710     -0.00000125
H       3.17598967     -0.48451461      0.00009833
H       2.00544849     -1.92625519      0.00029221
H       0.31840296      1.65511153     -0.00034101
H      -0.41105178     -1.61496733      0.00032857
H      -2.80502923     -0.77094179     -0.88580300
H      -3.27435193      0.68397797      0.00087814
H      -2.80444443     -0.77241720      0.88493102
