14
b3lypvtz=-169732.68661568
C      -0.63252974      1.28826552      0.25771412
C      -0.25736173     -0.14654936      0.01588088
C      -1.41279022     -1.10497520      0.04760350
C       0.99002098     -0.59294537     -0.21459999
C       2.20787833      0.21327253     -0.27520340
O       3.30666124     -0.25628218     -0.48805530
H      -1.12437901      1.38547073      1.22956090
H      -1.36164351      1.61332705     -0.48966076
H       0.20780108      1.97513526      0.23277910
H      -1.09836581     -2.13139563     -0.13150613
H      -2.15791596     -0.83263680     -0.70566093
H      -1.92162759     -1.06050762      1.01500711
H       1.15547574     -1.65243900     -0.37755917
H       2.09877619      1.30236006     -0.11619994
