14
b3lypvtz=-193030.13798766
C      -0.17765958      1.53674478     -0.06662292
C      -0.05296983      0.08227220      0.36975609
C      -1.33753315     -0.70146701      0.20787475
O      -2.37171513     -0.26029048     -0.22106676
C       1.09082512     -0.66020259     -0.32533934
O       2.31765906     -0.10804879      0.13949913
H      -0.44750891      1.60087541     -1.12165601
H      -0.95451279      2.04911676      0.49938393
H       0.76804185      2.05425014      0.08393326
H       0.17690771      0.03132935      1.44380133
H      -1.27311207     -1.76312620      0.53250667
H       0.99418180     -0.54480662     -1.41174402
H       1.03710283     -1.73143084     -0.09392835
H       3.04231710     -0.49876911     -0.35682575
