15
b3lypvtz=-157245.84291405
C       1.95704517      0.28635527     -0.18430778
C       0.65745226     -0.20071942      0.43355087
C      -0.03549044     -1.48707756     -0.11431393
C      -1.40806405     -0.75131675     -0.08555290
C      -0.64186121      0.54529196      0.10684650
N      -0.98534496      1.73945157     -0.09725311
H       1.87148677      0.35902723     -1.27019931
H       2.77990358     -0.39320660      0.04539238
H       2.23121831      1.27284400      0.19621382
H       0.76161208     -0.27256117      1.52100482
H       0.05383982     -2.38431932      0.49456130
H       0.28521863     -1.71472268     -1.13079921
H      -2.00766809     -1.00616355      0.79044859
H      -2.04134128     -0.80858193     -0.96955057
H      -0.20437860      2.38021495      0.05915453
