13
b3lypvtz=-156455.82424946
C      -3.06125540     -0.42321902      0.00044502
C      -1.98410445      0.10548458      0.00017391
C      -0.66341682      0.72188854      0.00006262
C       0.47248127     -0.30930453     -0.00055950
N       1.76386395      0.37707424     -0.00077036
C       2.81079310     -0.32338736      0.00035369
H      -4.01827397     -0.88157986      0.00042123
H      -0.55378534      1.36775782      0.87473626
H      -0.55415511      1.36831629     -0.87424195
H       0.38301520     -0.95128589     -0.88147939
H       0.38342476     -0.95204737      0.87985509
H       3.78012252      0.17060603      0.00012360
H       2.81500529     -1.42098246      0.00157480
