9
b3lypvtz=-196769.04808627
N       1.14379194      0.01267583      0.24880576
C       0.46083158     -1.11053196      0.63611427
N       0.94308836     -2.34579772      0.56670476
N      -0.06610066     -3.02960405      1.11296896
H      -0.04578017     -4.02979740      1.22800958
N      -1.08951249     -2.29958166      1.48848879
N      -0.77904734     -1.06430607      1.19326647
H       0.55612897      0.80883503      0.06231610
H       1.86409982     -0.13839200     -0.43787469
