9
b3lypvtz=-201557.98600866
C      -0.76291547      0.95770451     -0.14579390
C       0.42123999      0.19548223      0.04032164
C      -0.03428397     -1.05985503      0.28315985
O      -1.38589761     -1.06220044      0.24791762
N      -1.83466870      0.22201240     -0.02502152
O       1.67462619      0.71355491     -0.03159515
H      -0.85038543      2.01046364     -0.36181069
H       0.44511480     -2.00144387      0.48701819
H       2.32717020      0.02428165      0.12601175
