11
b3lypvtz=-202348.03647543
C       2.04887507     -0.61468809      0.00001195
O       0.61187010     -0.69836404     -0.00037450
C      -0.04264984      0.47333564     -0.00034396
O       0.48651559      1.55592388     -0.00000594
C      -1.53961549      0.29571484      0.00008216
N      -2.17033247     -0.79827087      0.00017199
H       2.40205983     -1.64104164      0.00029576
H       2.39624079     -0.08788471     -0.88702606
H       2.39565855     -0.08751946      0.88705701
H      -2.08001286      1.24046935      0.00041690
H      -1.51825428     -1.58582290     -0.00020730
