14
b3lypvtz=-167303.2675166
C      -2.55116349     -0.12702645     -0.00000883
N      -1.36056821      0.33332748     -0.00000161
N      -0.33291821     -0.52303939      0.00001501
C       0.99322375     -0.10199818     -0.00000042
C       1.99107363     -0.99501398     -0.00001048
C       1.21014242      1.38077972     -0.00000095
H      -2.78079930     -1.19513719     -0.00000581
H      -3.36627820      0.58190941     -0.00002066
H      -0.52055045     -1.52027636      0.00000491
H       3.01800758     -0.66713834     -0.00001789
H       1.80669881     -2.06174771     -0.00001032
H       0.75101977      1.84339230     -0.87466459
H       2.27618586      1.59516082     -0.00000887
H       0.75103306      1.84339087      0.87467051
