12
b3lypvtz=-166502.0026899656
C       3.30351522      0.03906961     -0.07441133
C       2.17515809     -0.36206593      0.13878431
C       0.88832703     -0.81102689      0.37766150
N      -0.18373424     -0.00825665      0.02479737
C      -1.47843942     -0.18242126      0.13556491
N      -2.40410548      0.74854461     -0.28516673
H       4.28984649      0.38086106     -0.25648395
H       0.65850970     -1.76221325      0.82865887
H       0.11658686      0.86599502     -0.39248235
H      -1.84729712     -1.09527271      0.57310358
H      -2.13835826      1.62144171     -0.69980842
H      -3.38000889      0.56534468     -0.16973549
