15
b3lypvtz=-178132.23264403
C       2.85235618      0.16902886      0.34606216
N       1.52755458      0.76459314      0.33026331
N       0.51358526     -0.13174091      0.15423890
C      -0.58621777      0.26640059     -0.34809445
C      -1.75213810     -0.66233416     -0.48210999
N      -2.91439844     -0.11972470      0.23617763
H       3.57675975      0.93814058      0.61407236
H       3.14559730     -0.27452209     -0.61362993
H       2.87761870     -0.61072086      1.10530686
H       1.45819962      1.59077962     -0.25880909
H      -0.73706617      1.30420789     -0.66600635
H      -2.03323619     -0.73517288     -1.53774028
H      -1.43259514     -1.65882133     -0.15702915
H      -2.75571286     -0.16723299      1.23613885
H      -3.74030674     -0.67288075      0.04115915
