14
b3lypvtz=-193017.91766109
C       1.90116681     -0.91508142      0.85524380
C       0.79395197     -0.83004859      0.13174294
C       0.11650657      0.46076781     -0.21506245
O       0.05240856      0.53570024     -1.65477763
C      -1.31054882      0.54871076      0.33989442
O      -2.15708984     -0.43191055     -0.22988558
H       2.34280569     -1.87072654      1.10503012
H       2.40858712     -0.03228503      1.22721205
H       0.30306074     -1.72605756     -0.23079338
H       0.70452841      1.29553913      0.18219504
H      -0.16407861      1.44088299     -1.90232532
H      -1.30811087      0.38790700      1.41874220
H      -1.69954600      1.56087629      0.15237418
H      -1.98374172     -0.42417453     -1.17959039
