13
b3lypvtz=-179777.58223229
C       1.07805243     -1.33244076     -0.00637303
C       0.85222074      0.15724872     -0.00319316
N       1.75348059      1.05252758     -0.05091543
C      -0.55663121      0.65087711      0.07139800
C      -1.66468402      0.01534152     -0.66012331
O      -1.51922358     -0.17654801      0.74312789
H       2.13889125     -1.55891414      0.08765209
H       0.53145881     -1.80421715      0.81045845
H       0.71364218     -1.77977926     -0.93417954
H       2.68223895      0.63446273     -0.11433442
H      -0.62879022      1.71015515      0.29072738
H      -1.48208721     -0.86194110     -1.27133564
H      -2.50720670      0.62809062     -0.96352728
