12
b3lypvtz=-192263.52064483
C      -2.43786702      0.15689914     -0.11707054
C      -1.17255925     -0.70336852     -0.13685333
C      -0.02109138     -0.05832365      0.57460504
O       0.67224489      1.10243480     -0.18025081
C       1.33202870     -0.02675302      0.05954467
O       2.40315173     -0.49118279     -0.15387936
H      -2.75955739      0.36467202      0.90516761
H      -3.25596740     -0.34993750     -0.62877074
H      -2.26592950      1.11029082     -0.61707961
H      -0.88076513     -0.93502998     -1.16265511
H      -1.35847042     -1.66112134      0.35982950
H      -0.17762382      0.20618102      1.61598967
