15
b3lypvtz=-157228.1992741
C      -2.54658981     -0.00012845     -0.00849231
C      -1.27792564     -0.00004341     -0.40010483
C      -0.10016714     -0.00000417      0.51384790
C       0.99329259      1.05373550      0.16349775
N       1.75449027      0.00011958     -0.54303573
C       0.99340285     -1.05361193      0.16344399
H      -3.36085721     -0.00015251     -0.72097827
H      -2.81638169     -0.00017639      1.04148723
H      -1.04576223      0.00000254     -1.46187581
H      -0.42539324     -0.00004838      1.55293939
H       1.48067751      1.44345251      1.06449830
H       0.68821349      1.89339376     -0.46407558
H       2.75519317      0.00016803     -0.39306506
H       0.68841168     -1.89327028     -0.46417193
H       1.48082842     -1.44332338      1.06442498
