15
b3lypvtz=-157219.99750565
C      -2.17236448      0.33017200     -0.08861128
C      -0.67098750      0.43704247     -0.09932581
C       0.15011464     -0.72133895     -0.49302926
C       1.63432687     -0.38403233     -0.52478537
C       1.45273797      0.12215160      0.92762682
N       0.01106000     -0.31263013      0.97074298
H      -2.60247736      1.00848061      0.65043836
H      -2.58747223      0.58240952     -1.06670430
H      -2.48227632     -0.68309224      0.16789655
H      -0.28239738      1.42851355     -0.32492389
H      -0.29507747     -1.63509714     -0.86817114
H       1.95466295      0.33090706     -1.28447774
H       2.27258638     -1.26350949     -0.58029988
H       1.58590679      1.19203958      1.10169931
H       2.03165714     -0.43211612      1.66312467
