15
b3lypvtz=-180566.94947302
C       1.40641267      0.97454613     -0.65686390
C       0.81778902     -0.15387855      0.15608935
O       1.49849182     -1.05583983      0.59072737
C      -0.69800428     -0.16535558      0.40214722
C      -1.36209675     -0.99740368     -0.70042550
N      -1.25939251      1.18742033      0.40113656
H       2.43350377      0.73152472     -0.91777568
H       1.38526005      1.89909810     -0.07623538
H       0.81134285      1.16880453     -1.54949859
H      -0.83030004     -0.69570585      1.35250474
H      -2.43277526     -1.08945514     -0.50580182
H      -1.23585408     -0.52426960     -1.67545688
H      -0.93555953     -1.99862925     -0.73344459
H      -1.03078671      1.67784192      1.25773511
H      -2.27011902      1.14905274      0.34758199
