13
b3lypvtz=-156432.51238546
C      -1.18097839      0.85664469      0.17156731
C       0.34606085      1.02699001      0.01040468
N       0.87644014      0.14239061      1.11199517
C       0.42004825     -0.98064574      0.26008802
C      -0.94473378     -0.57438715     -0.29685304
C       0.34098076     -0.18970838     -1.00903660
H      -1.73264080      1.42887062     -0.57403087
H      -1.58219695      1.03235669      1.17074849
H       0.81031956      2.00025723     -0.11094309
H       1.89209898      0.16264243      1.04774334
H       0.69040296     -2.01130118      0.43558919
H      -1.67056103     -1.31514154     -0.59904798
H       0.68115945     -0.34946828     -2.02182462
