16
b3lypvtz=-147163.31095465
C       2.78609196      0.07689507     -0.17881945
C       1.67857268     -0.31857491      0.06098542
C       0.32797856     -0.79511308      0.33633283
C      -0.79029151      0.03615153     -0.33430187
C      -0.80074507      1.48066669      0.16791783
C      -2.14517253     -0.63995854     -0.11298451
H       3.76758349      0.42224757     -0.38703318
H       0.24907043     -1.83473793      0.00501581
H       0.16479049     -0.80585366      1.41955786
H      -0.58283607      0.04853929     -1.40842167
H      -1.56590900      2.06445342     -0.34656660
H       0.16139401      1.96608662      0.00493586
H      -1.01936935      1.51738025      1.23875329
H      -2.38725052     -0.69063601      0.95199249
H      -2.15540205     -1.65830754     -0.50643392
H      -2.94358552     -0.08342476     -0.60623218
