14
b3lypvtz=-167327.16466496
N      -2.12224083     -0.01184645      0.09575160
C      -0.73829493      0.10348434     -0.00517631
C       0.05589528      1.18174486      0.06216362
C       1.49423240      0.74398558     -0.08544235
C       1.38718200     -0.78639646      0.11432118
N      -0.02818080     -1.09740221     -0.18751977
H      -2.60002917      0.87510164      0.04348489
H      -2.51117585     -0.66568791     -0.57068220
H      -0.27976793      2.20653093      0.06095935
H       1.88866798      0.97982358     -1.08161643
H       2.17936209      1.19276698      0.63756168
H       1.61980477     -1.04404172      1.15327971
H       2.05592500     -1.35081622     -0.53500433
H      -0.40061401     -1.86183696      0.36165235
