11
b3lypvtz=-204916.03645473
C      -2.98542708      0.08785435      0.00002960
C      -1.75017881     -0.41518809     -0.00000625
N      -0.58505798      0.32476742     -0.00002232
N       0.61090862     -0.29855195     -0.00001901
C       1.66923622      0.37722897      0.00000482
F       2.84642776     -0.26327316     -0.00001313
H      -3.83536317     -0.57527524      0.00004908
H      -3.18008101      1.15264800      0.00004058
H      -1.55968007     -1.47974944     -0.00002901
H      -0.63076927      1.33522635      0.00001644
H       1.78177577      1.45842879      0.00000520
