7
b3lypvtz=-221701.42827279
C       0.62598968     -0.54149714     -0.43092836
O       1.72515950     -0.99772521     -0.51842023
N       0.19760952      0.69101724      0.02538971
N      -1.13965578      0.80259429     -0.04577373
N      -1.61829553     -0.24679991     -0.50745342
O      -0.55336659     -1.15259354     -0.77768724
H       0.76255920      1.44500429      0.37615113
