13
b3lypvtz=-184775.86588695
C      -3.15957157     -0.45991772      0.00017478
C      -2.08948184      0.08167773      0.00008937
C      -0.77964222      0.72148941     -0.00001897
C       0.38196385     -0.28797030      0.00005521
C       1.72516512      0.41342100     -0.00006119
F       2.75210028     -0.52944478      0.00001037
H      -4.10845091     -0.93508386      0.00025709
H      -0.70256883      1.37391649     -0.87543060
H      -0.70251562      1.37410563      0.87524703
H       0.31126263     -0.93108311      0.87846225
H       0.31120948     -0.93127375     -0.87820804
H       1.85229240      1.03750948      0.88841455
H       1.85223925      1.03731677     -0.88867986
