11
b3lypvtz=-197491.56167875
N       1.91120252      0.39742280      0.27070570
C       1.32993952     -0.84854206      0.12585969
N       0.09660978     -1.10453646     -0.08749026
N      -0.71727558      0.00297583     -0.20491929
N      -2.00543102     -0.25020542     -0.48958864
N      -2.75078815      0.71258032     -0.21169777
H       2.91729549      0.41194319      0.24161934
H       1.49396246      1.14734844     -0.26177017
H       1.98505862     -1.70058354      0.25702368
H      -0.57503229      0.79704851      0.42382386
H      -3.68574134      0.43464840     -0.51376615
