12
b3lypvtz=-215557.65810163
C       2.09433797     -0.70142014     -0.00001059
O       1.30846177      0.48207901      0.00000188
C      -0.04240509      0.32775532      0.00000239
O      -0.68011112      1.53617790      0.00000282
C      -0.74822739     -0.80355017      0.00000369
O      -2.12782347     -0.83303936      0.00000202
H       3.13167618     -0.37865080     -0.00001539
H       1.89368554     -1.30071681      0.89196937
H       1.89367316     -1.30070576     -0.89199518
H      -0.00865997      2.22696830     -0.00001548
H      -0.29888149     -1.78022332      0.00000698
H      -2.44949310      0.07566382      0.00000047
