14
b3lypvtz=-169691.03676622
C       1.93049145     -1.37795748     -0.10800464
C       1.09100405     -0.54505058      0.09540762
C       0.06521522      0.48083998      0.34075084
C       0.54159580      1.86858568     -0.07736003
O      -1.13649820      0.21801987     -0.37295539
C      -1.82968857     -0.94023936      0.05664659
H       2.67466421     -2.11268424     -0.29081891
H      -0.15305748      0.48458738      1.41871160
H      -0.23351493      2.60050985      0.14694842
H       0.74390286      1.88505546     -1.14740694
H       1.45255013      2.13569940      0.45704518
H      -2.73705860     -1.00212649     -0.54079141
H      -2.10354232     -0.86980466      1.11663352
H      -1.23714262     -1.84755581     -0.09487846
