10
b3lypvtz=-189111.3663985
C       2.06951952     -0.03375351      0.00002920
C       0.59391838      0.08126865      0.00004272
N      -0.13462400      1.14397007     -0.00002933
N      -1.46939478      0.71372476      0.00011226
C      -1.42308763     -0.56739049     -0.00008644
O      -0.15743435     -1.05991178     -0.00010320
H       2.50002263      0.96399294      0.00003274
H       2.41647599     -0.57430838     -0.88183054
H       2.41647153     -0.57430794      0.88189220
H      -2.23932229     -1.26828632      0.00018639
