13
b3lypvtz=-156450.22399724
C       1.98238039     -0.60913474     -0.26150093
C       0.74304116     -0.28210547      0.05753830
C       0.06602462      0.79100832      0.89160954
C      -1.23859498      0.09560637      0.50537424
N      -0.48304971     -1.00948790     -0.23748936
C      -1.36154525     -0.04191512     -0.95008697
H       2.18691686     -1.50331432     -0.83475597
H       2.81770816      0.00152769      0.05189324
H       0.30429770      0.69928416      1.95101083
H       0.17914462      1.83364955      0.59037675
H      -2.04377492     -0.14703436      1.18477227
H      -2.25409852     -0.51258745     -1.34022042
H      -0.89845013      0.68450326     -1.60852154
