16
b3lypvtz=-170484.08620744
C       1.18639637      1.42496060      0.18203061
C       0.91259238      0.12025732      0.20345202
C       1.76552400     -0.88599756     -0.52067837
C      -0.29753407     -0.41820768      0.92766570
C      -1.48528017     -0.65338639     -0.01873081
O      -1.96647138      0.54773635     -0.59896565
H       0.58104590      2.13875601      0.72653921
H       2.03603200      1.81816699     -0.36225638
H       2.21764310     -1.58470209      0.18921734
H       1.17302078     -1.48876383     -1.21410651
H       2.56500938     -0.40713516     -1.08449664
H      -0.61505103      0.28119247      1.70273053
H      -0.05297363     -1.36692934      1.41569476
H      -2.32034116     -1.07249885      0.54336299
H      -1.21327871     -1.38102969     -0.79420120
H      -1.21178575      1.01578283     -0.97567660
