11
b3lypvtz=-202366.32731611
C       0.56180351     -1.11978744     -0.40241978
N      -0.06319628      0.12564306      0.04049303
C       0.71179451      1.25573725      0.24780875
O       1.90516440      1.30060104      0.08984278
C      -1.42993498      0.17542310      0.26477555
O      -2.17722780     -0.75859147      0.12244183
H       0.87073559     -1.71825977      0.45477694
H       1.43677761     -0.87356650     -0.99621510
H      -0.16340245     -1.68125573     -0.98348754
H       0.11425526      2.12148455      0.57344580
H      -1.76686937      1.17257190      0.58843774
