14
b3lypvtz=-167315.19569986
C      -2.81967324     -0.39319041      0.05722338
N      -1.60182596      0.28247909     -0.34551131
C      -0.56694756      0.12906135      0.35867639
C       0.74450210      0.78119169      0.00614130
C       1.77784902     -0.24181088     -0.41252201
N       2.88379623     -0.50316542      0.14288438
H      -2.71061751     -0.99399690      0.96978505
H      -3.15260078     -1.04033269     -0.75662632
H      -3.60465651      0.34972522      0.21150715
H      -0.56459878     -0.50406959      1.25859484
H       0.56400006      1.47371102     -0.81881119
H       1.12265071      1.34347756      0.86513672
H       1.51719419     -0.81844958     -1.30338790
H       3.03151902      0.08768854      0.96473352
