15
b3lypvtz=-157267.83200691
C       2.85164937     -0.46294919     -0.00000810
C       1.65091905      0.48177419     -0.00001077
C       0.31430505     -0.25975214      0.00003836
C      -0.88508803      0.70396290      0.00005183
C      -2.17014224      0.01181402      0.00004984
N      -3.17380974     -0.55088812     -0.00022634
H       3.79058345      0.09194173     -0.00004072
H       2.84684594     -1.10762509      0.88121913
H       2.84681332     -1.10767426     -0.88119906
H       1.70103930      1.13709219     -0.87503435
H       1.70107595      1.13714229      0.87497328
H       0.24909230     -0.91012178      0.87525735
H       0.24904367     -0.91015045     -0.87515556
H      -0.84789979      1.35529482      0.87690142
H      -0.84796059      1.35524890     -0.87683632
