16
b3lypvtz=-193783.60121335
C      -2.16576716     -0.64211892      0.34840769
C      -1.09499164      0.35078748      0.78122819
O      -0.14019106      0.63767885     -0.23255470
C       0.81088004     -0.38815875     -0.47956236
C       1.90411812      0.21631177     -1.33753095
O       2.55796812      1.29069026     -0.68268391
H      -2.91428737     -0.74889323      1.13604268
H      -2.66647893     -0.29338932     -0.55563504
H      -1.74956644     -1.63084949      0.15209004
H      -0.57972335     -0.00973253      1.68103655
H      -1.55287960      1.31045897      1.02441262
H       1.23276767     -0.74295565      0.46974019
H       0.35681108     -1.24077660     -0.99937435
H       2.66348848     -0.53806098     -1.54804125
H       1.47302238      0.54064586     -2.29276528
H       1.86462966      1.88836229     -0.38041011
