10
b3lypvtz=-189059.83102833698
C      -1.21888797     -0.61136520     -0.18263957
C      -0.40001713      0.59764787     -0.28382040
O      -1.38599714      0.43760851      0.77043883
C       1.02985848      0.65911647      0.06301232
N       1.67722425     -0.39901693      0.44308630
N       2.23628413     -1.33004980      0.76219798
H      -0.78055660     -1.52597996      0.20628217
H      -2.04297789     -0.75928459     -0.87409844
H      -0.69320003      1.34495905     -1.01379394
H       1.57826990      1.58636458      0.10933475
