11
b3lypvtz=-233252.9887007
N       2.24390231     -0.43330096     -0.45379584
C       1.58192023      0.39514919      0.42359252
C       0.26105234      0.55442002      0.58954368
C      -0.78254245     -0.09085796     -0.23268253
F      -1.38207612     -1.14770804      0.42384497
F      -1.79467390      0.79883947     -0.50527182
H       3.18127176     -0.17392651     -0.70740109
H       1.72571584     -0.86993724     -1.19714360
H       2.25149856      0.93656216      1.08122619
H      -0.09430437      1.18745166      1.38962244
H      -0.43164221     -0.47892978     -1.19226692
