12
b3lypvtz=-192267.17874895
C       2.25101790     -0.61546106      0.00002177
C       1.24001814      0.48858729      0.00003016
C      -0.10096251      0.40403342      0.00001760
O      -0.92996552      1.48549455      0.00002670
C      -0.84566096     -0.87591797     -0.00000678
O      -2.04997825     -0.95557195     -0.00001651
H       2.90060767     -0.53699897      0.87614218
H       2.90062997     -0.53696452     -0.87607896
H       1.81366167     -1.60995895     -0.00000349
H       1.66467364      1.49105703      0.00004929
H      -0.40360976      2.29223515      0.00004221
H      -0.21644099     -1.78153903     -0.00001417
