12
b3lypvtz=-189834.9020282
C       0.43326625      1.78760739      0.16505453
C       0.23335642      0.48165630     -0.01923508
C      -1.10941848     -0.15104303     -0.28968620
O      -1.49786544     -1.08964611      0.70241056
N       1.40813950     -0.32205111      0.02463024
N       1.19555080     -1.54575965     -0.08022784
H       1.43377246      2.16521672      0.32522616
H      -0.38748324      2.49110127      0.16092520
H      -1.08733806     -0.61825303     -1.28199673
H      -1.87305387      0.62565583     -0.30527156
H      -0.85856134     -1.81084545      0.64463372
H       2.10963500     -2.01373912     -0.04656301
