10
b3lypvtz=-269031.92853316
O       1.08652389     -0.99044740     -0.46564020
C       0.41315338     -0.05601616      0.34429977
O       0.88017164      1.24824758      0.18138203
C      -1.06396819     -0.19147188     -0.03099682
F      -1.28492854      0.44540720     -1.22272163
F      -1.83527740      0.41940287      0.90783380
H       2.02958182     -0.91080520     -0.28677418
H       0.52629639     -0.28267174      1.40796441
H       0.62693277      1.54807704     -0.70174337
H      -1.37848577     -1.22982230     -0.13360381
