10
b3lypvtz=-245729.17611175
O       2.31509421     -0.75211609      0.14627589
C       1.43791719      0.04528212     -0.05559138
C       0.07536438     -0.02381032      0.60321376
C      -1.05720779     -0.09525262     -0.40079956
F      -1.03576492      1.00948465     -1.21118725
F      -2.25419926     -0.09596103      0.25474412
H       1.58662269      0.89591625     -0.74772585
H       0.03714661     -0.89097783      1.26072498
H      -0.07755955      0.88501227      1.19347693
H      -1.02751358     -0.97747740     -1.04313163
