16
b3lypvtz=-170487.86016237
C      -1.88725074      0.00009730     -0.84991760
C      -0.83734103      0.00005980     -0.03239735
O      -1.04784115     -0.00026988      1.32492217
C       0.60163290      0.00022111     -0.49414509
C       1.34532915     -1.26966946     -0.04634784
C       1.34551882      1.26972146     -0.04552836
H      -2.89612873     -0.00013002     -0.46294632
H      -1.74481137      0.00035651     -1.91930679
H      -0.20566256     -0.00038711      1.78842659
H       0.56858964      0.00055587     -1.58491366
H       2.36511889     -1.26967536     -0.43428718
H       1.41538198     -1.34094539      1.04237263
H       0.84100962     -2.16697268     -0.40507038
H       1.41550729      1.34033437      1.04323918
H       2.36533614      1.26978506     -0.43338469
H       0.84145615      2.16735942     -0.40376332
