9
b3lypvtz=-224866.72593723
C      -1.51333922     -0.29415025      0.04403875
N      -0.33532287     -0.78065259      0.04188726
O       0.56923854      0.25554027     -0.38083769
C       1.87296168     -0.14191127     -0.42619606
O       2.31271365     -1.21270037     -0.16250559
O      -1.90986546      0.94015322     -0.27539569
H      -2.31657422     -0.95438235      0.34213608
H       2.44913549      0.73279768     -0.75912073
H      -1.12894758      1.45530566     -0.52732920
