18
b3lypvtz=-171250.5281551
C      -2.23169333     -0.33803608      0.07942061
C      -1.08592125      0.52436387     -0.45033931
C       0.16780446      0.56315136      0.44036583
C       1.20291417      1.54870895     -0.11273674
C       0.78603311     -0.81758037      0.65459692
O       1.14201641     -1.37166672     -0.61316436
H      -2.51800156     -0.04477186      1.09272744
H      -3.11534702     -0.23848292     -0.55313987
H      -1.96705503     -1.39611382      0.09989780
H      -1.44073260      1.55153467     -0.57360961
H      -0.79772482      0.17623945     -1.44451351
H      -0.13717378      0.90889707      1.43578799
H       0.77225411      2.54522414     -0.22473275
H       1.56275893      1.22291585     -1.08907848
H       2.06604716      1.63057366      0.55134107
H       0.07699159     -1.47242187      1.17289286
H       1.67235993     -0.71799315      1.29318385
H       1.56248053     -2.22353922     -0.47144774
