13
b3lypvtz=-179819.96693927
C       2.75485211     -0.17605005      0.00007329
C       1.34126538      0.29893615     -0.00008915
C       0.26142881     -0.47790331     -0.00024626
C      -1.10714685      0.10993949     -0.00026911
N      -2.11887558     -0.80899574      0.00008990
O      -1.32741943      1.30965753     -0.00008972
H       2.82415938     -1.26387340      0.00004879
H       3.28935988      0.20454818     -0.87483113
H       3.28913764      0.20449354      0.87513701
H       1.17266143      1.37168823     -0.00006491
H       0.35827422     -1.55919305     -0.00031476
H      -3.06694313     -0.47539028      0.00037585
H      -1.94880584     -1.79759028      0.00007520
