12
b3lypvtz=-189870.66026024
N      -1.87349272     -0.13615479     -0.37979296
C      -0.73656228     -0.06294377      0.46295428
C       0.17717824      1.16858381      0.23858182
N       1.45757895      0.65167635     -0.25451604
C       1.34383569     -0.60939332     -0.23961722
O       0.19946071     -1.18316645      0.18026543
H      -2.74233015     -0.35745166      0.07527146
H      -1.97152429      0.61583385     -1.04184585
H      -1.01585662     -0.20676168      1.50517921
H       0.33339447      1.73230972      1.15963732
H      -0.25646942      1.85671670     -0.49198795
H       2.11615043     -1.30235376     -0.54950050
