17
b3lypvtz=-158001.79973689
C       2.17600715     -0.14900274      0.31200188
C       0.99465567     -0.36929746     -0.63502292
C      -0.34145912      0.10373613     -0.08932182
C      -0.49314298      1.59813891      0.09458252
C      -1.11643290     -0.80012458      0.79595409
N      -1.49670700     -0.64168224     -0.62218599
H       2.00857510     -0.64083998      1.27253120
H       3.09351179     -0.55740998     -0.11397961
H       2.35198717      0.90989911      0.50820835
H       1.18265613      0.13868888     -1.58666510
H       0.89985585     -1.43063622     -0.87034068
H      -1.47881543      1.84697346      0.49228827
H       0.25156576      1.99750357      0.78532072
H      -0.37184467      2.11755425     -0.85977970
H      -0.72372894     -1.77674491      1.05346001
H      -1.74985615     -0.35609191      1.55534757
H      -2.30407541     -0.03031830     -0.69467581
