12
b3lypvtz=-166540.66780317
C       1.22479546      0.57754410      0.11174571
N       0.39294079      1.42191409     -0.77242397
C      -0.70316427      0.82199251     -1.00363134
C      -0.87058863     -0.49297051     -0.31551852
N      -0.84103433     -0.32212012      1.16468491
C       0.39799110     -0.65452812      0.43923495
H       1.48877767      1.15037837      1.00234162
H       2.15107434      0.32921760     -0.41197302
H      -1.45544442      1.26213094     -1.65119854
H      -1.43476950     -1.30761755     -0.74834256
H      -1.21094060     -1.16550096      1.59491190
H       0.86026239     -1.62064035      0.59006885
