11
b3lypvtz=-202362.39966528
C      -2.25312233      0.56582509     -0.23265925
C      -1.17857633     -0.20233420     -0.17015145
O       0.07863713      0.33768169     -0.34070390
C       1.15060971     -0.52090724     -0.26446193
O       1.07141402     -1.70598099     -0.06015038
N       2.29253458      0.18082218     -0.45508034
H      -3.22887785      0.12559019     -0.09662991
H      -2.18635814      1.62862461     -0.41700235
H      -1.18268416     -1.26708726      0.01035582
H       3.16492455     -0.31209104     -0.42802603
H       2.27149883      1.16985698     -0.61968737
