8
b3lypvtz=-185910.19435629
N       0.95152995     -0.00646512     -0.03984982
N       0.41903768      1.07879525      0.19833671
C      -1.06093738      0.96650456      0.17370096
N      -1.74117789     -0.06709934     -0.05304390
C      -1.69060613      2.23488268      0.45161114
N      -2.17296663      3.25497422      0.67510661
H       1.96918797      0.13885900     -0.00795596
H      -1.10676758     -0.85535124     -0.22590574
