19
b3lypvtz=-158769.99379768
C      -2.13340681     -0.93484495     -0.23243799
C      -0.82861439     -0.61684081      0.49230275
N      -0.00103686      0.37176081     -0.19980739
C      -0.55946165      1.71202705     -0.09954655
C       1.39348657      0.34809399      0.24474915
C       2.17934954     -0.85636892     -0.26509644
H      -1.93083105     -1.25828674     -1.25410488
H      -2.66404426     -1.73609468      0.28527287
H      -2.80391187     -0.07619824     -0.27562210
H      -1.04615341     -0.29008598      1.52572932
H      -0.25215831     -1.53748089      0.57657112
H      -0.59542642      2.08504668      0.93981752
H      -1.57305589      1.73456397     -0.49691435
H       0.04060801      2.40690454     -0.68779114
H       1.86803891      1.25446170     -0.13632983
H       1.46437101      0.40363266      1.34616912
H       3.22790407     -0.76921395      0.02598555
H       2.12530577     -0.91036760     -1.35299777
H       1.80865206     -1.79877764      0.13905503
