16
b3lypvtz=-147169.89417536
C       2.01510304     -0.63556119      0.02642484
C       0.74611362      0.13923503      0.04207529
C       0.39256639      1.38566008     -0.28729273
C      -1.06604566      1.20716025      0.07784678
C      -0.66239249     -0.25852536      0.47439331
C      -1.34094232     -1.39178706     -0.28286439
H       2.84206385     -0.03714838     -0.35808588
H       2.28045048     -0.97757379      1.03135319
H       1.92565880     -1.53058054     -0.59617687
H       0.94741985      2.23345823     -0.67039165
H      -1.43766431      1.82418310      0.89957416
H      -1.77626344      1.26734245     -0.75038126
H      -0.74485041     -0.43102181      1.55245818
H      -1.28881670     -1.22633290     -1.36148234
H      -2.39396632     -1.47554782     -0.00478388
H      -0.86676838     -2.35264127     -0.06899674
