14
b3lypvtz=-193018.04712884
C      -2.09060428     -0.87418453     -0.17747466
C      -1.48614747      0.21462186      0.27541585
C       0.00188472      0.41881086      0.35366081
O       0.37989879      1.63335891     -0.27843258
O       0.65813387     -0.69112699     -0.19261265
C       2.05648402     -0.71456687      0.05378379
H      -1.52359402     -1.72963808     -0.51671904
H      -3.16990271     -0.93792238     -0.21809239
H      -2.06059397      1.06759724      0.61929721
H       0.31309402      0.56122663      1.39688677
H       0.02385733      1.61490319     -1.17515802
H       2.55223129      0.15924991     -0.37399562
H       2.44379946     -1.61708966     -0.41394585
H       2.26542895     -0.75129707      1.12916538
