16
b3lypvtz=-170474.05839897
C       2.95855515     -0.46147265     -0.10706408
C       1.70470007      0.35604084     -0.10538783
C       0.51447070     -0.05395925      0.32000606
C      -0.71590397      0.80500084      0.31616965
O      -1.75488103      0.31991983     -0.53200580
C      -2.49742315     -0.75079597      0.01178179
H       3.73669472      0.00895848      0.50067577
H       2.78499066     -1.46555153      0.28100885
H       3.36534222     -0.55151791     -1.11818273
H       1.79637063      1.37078674     -0.48659337
H       0.40867635     -1.06525121      0.70329960
H      -0.46996149      1.80052525     -0.05539487
H      -1.10802742      0.91510473      1.33777855
H      -3.30293923     -0.96914478     -0.68771816
H      -2.93414720     -0.48256497      0.98276765
H      -1.89555302     -1.65763944      0.14069291
