13
b3lypvtz=-179769.3172548091
C      -1.66542044     -0.48245136     -0.01574007
C      -0.49624834      0.23622074      0.60857088
C       0.85993687      0.11692133     -0.05501197
C       0.78450267      1.41972489     -0.33774674
O      -0.46795544      1.67330812      0.25548971
N       1.64307884     -0.99473471     -0.35817685
H      -1.58355324     -1.55642774      0.16560228
H      -1.68198155     -0.31438075     -1.09212883
H      -2.60569205     -0.13313348      0.41336901
H      -0.49193721      0.14509267      1.69741916
H       1.33046123      2.19300295     -0.85461398
H       1.89871542     -1.54209123      0.45378441
H       2.47609324     -0.76105143     -0.88081701
