13
b3lypvtz=-177375.7447913
C       2.85733862     -0.27775679      0.07084724
C       1.39145485     -0.24833089     -0.19961443
N       0.66509736      0.74219617      0.12677550
C      -0.71603024      0.67156810     -0.06457653
N      -1.38941973     -0.38784306      0.15357384
N      -2.74582260     -0.35637009     -0.08397462
H       3.18213604      0.64942105      0.53840362
H       3.41632086     -0.43690642     -0.85555822
H       3.10081207     -1.11757036      0.72847305
H       0.95350929     -1.12406039     -0.69027162
H      -1.18333167      1.61711728     -0.35059222
H      -3.21451581     -0.99347743      0.54275453
H      -3.16207204      0.57092683     -0.03778016
