11
b3lypvtz=-199970.88144816
N      -0.67608067      1.04340290      0.25328499
C      -0.35619253     -0.25774800      0.13927756
N      -1.27907900     -1.17364155      0.54845914
N       0.78842529     -0.72696922     -0.32343433
C       1.78087607      0.14218393     -0.66198023
O       1.77201920      1.37381632     -0.63661146
H       0.07883892      1.68611081      0.02311968
H      -1.47901957      1.33815270      0.78011220
H      -2.25128014     -0.91978188      0.58075949
H      -1.06599643     -2.12387237      0.29653694
H       2.68738887     -0.38165364     -0.99952399
