15
b3lypvtz=-180556.50769655
C       2.33152713      0.33166412      0.34540301
C       1.01805517     -0.43614836      0.33064348
N      -0.06992586      0.42555997     -0.13462553
C      -1.38536758      0.00916242     -0.06509361
C      -2.31987628      0.21730036     -1.00532595
O      -1.63996922     -0.60371251      1.13011247
H       2.59478819      0.68855658     -0.65360364
H       3.14422153     -0.30905969      0.68944511
H       2.26688379      1.19639120      1.00646716
H       0.76994019     -0.77527983      1.33372288
H       1.11617244     -1.33299172     -0.29723827
H       0.13052138      0.88689570     -1.00881228
H      -3.36169325      0.00736028     -0.81240302
H      -2.06014048      0.64954023     -1.95895104
H      -2.53503715     -0.95503876      1.10035923
