11
b3lypvtz=-202308.86654968574
C      -1.99437698     -0.54881902      0.12216643
N      -0.70439363     -0.22848595      0.05596008
C      -0.08905528      0.93369651     -0.12988237
O       1.29052580      1.04520714     -0.19925411
C       2.13445352      0.02819797     -0.05266911
O       1.83082694     -1.12925860      0.15658530
H      -2.74426724      0.21514217      0.00873239
H      -2.24349866     -1.57782675      0.29907833
H      -0.03226837     -0.99265180      0.16726562
H      -0.60795125      1.86073810     -0.27896563
H       3.16000515      0.39406024     -0.14901692
