8
b3lypvtz=-209235.1845212
C       0.41959602     -0.04420267      0.09893668
N      -0.58596930      0.72622807     -0.33806692
N      -1.71713891     -0.03278147     -0.34030627
N      -1.36826022     -1.18999008      0.07899969
N      -0.03412722     -1.24089827      0.36643766
O       1.66609642      0.40875088      0.21686231
H      -0.59416572      1.68897711     -0.62953459
H       2.21396892     -0.31608355      0.54667142
