13
b3lypvtz=-179788.96307669
C       2.51868905      0.36331158      0.00010956
N       1.61976788     -0.77372069      0.00005149
C       0.36457640     -0.62107192      0.00002466
C      -0.41920751      0.67491964      0.00004698
C      -1.92037191      0.50018279     -0.00014941
O      -2.49908528     -0.55415800     -0.00021667
H       3.16875689      0.29004687     -0.87441381
H       2.04569887      1.35124741     -0.00016884
H       3.16828743      0.29032522      0.87500904
H      -0.24536256     -1.52186011      0.00000325
H      -0.16893621      1.29856051     -0.86670191
H      -0.16916166      1.29836429      0.86700658
H      -2.48863440      1.45366741     -0.00022092
