14
b3lypvtz=-167320.49155351176
C      -1.94277004      0.45778691      0.52428604
C      -0.80308964     -0.16109802     -0.25633139
C       0.27926889     -0.96069858      0.53812791
C       1.14436986      0.13152146     -0.02096103
N       0.26342573      0.81233525     -0.67133688
N       2.49509656      0.32402234      0.04411942
H      -1.56983204      0.98578491      1.40454983
H      -2.47647390      1.17909732     -0.09680431
H      -2.65461881     -0.30333901      0.85288832
H      -1.18557238     -0.71388110     -1.11833302
H       0.49592696     -1.97169827      0.19067672
H       0.15601713     -0.96747336      1.62247362
H       2.82337578      1.21948853     -0.28478888
H       2.97487589     -0.03184837      0.85306278
