12
b3lypvtz=-189894.22231855
C       2.66410823     -0.20859778     -0.01594284
C       1.43300741      0.29390191      0.03758816
N       0.26409070     -0.45847680      0.01482794
C      -0.99483316      0.12126710     -0.00687422
N      -2.02823261     -0.79816743     -0.05295335
O      -1.17574177      1.32181812     -0.02220539
H       3.51750595      0.45040261      0.01261735
H       2.85695467     -1.27165607     -0.08955410
H       1.23922051      1.35465879      0.10721013
H       0.34283430     -1.45365585     -0.11529104
H      -1.89655035     -1.69929574      0.37666052
H      -2.93269088     -0.38532185      0.10494985
