11
b3lypvtz=-202346.63658965
C       2.37590178      0.44824684      0.00000123
N       1.56044261     -0.75978444      0.00000767
C       0.31510638     -0.68032568      0.00000404
O      -0.35574015      0.54968242     -0.00000399
C      -1.71759436      0.55205315     -0.00000811
O      -2.42608177     -0.40842059     -0.00000949
H       3.42552246      0.16394466     -0.00011349
H       2.17874746      1.06327197      0.88148583
H       2.17857891      1.06339954     -0.88135612
H      -0.34084237     -1.54052033      0.00002010
H      -2.05991694      1.59386647     -0.00000968
