14
b3lypvtz=-167321.43860336
C      -2.06648203     -0.88231778      0.23723445
C      -0.91386782     -0.64308476     -0.37803894
C      -0.07244854      0.55565688     -0.12036089
N      -0.51564515      1.73699745      0.10442697
N       1.29386962      0.36667713     -0.20966019
C       1.96255418     -0.84474584      0.23838587
H      -2.66387350     -1.75128946     -0.00287874
H      -2.44595225     -0.22024833      1.00579613
H      -0.54661001     -1.34371375     -1.11994855
H      -1.52626319      1.76371524      0.00792997
H       1.78504473      1.22450712     -0.00093727
H       1.93955161     -0.97702575      1.32652861
H       3.00319055     -0.81103494     -0.08178552
H       1.50841079     -1.72401822     -0.21525489
