9
b3lypvtz=-175868.045311
C      -0.70737913      0.81629653      0.01913205
C      -1.09020282     -0.52299551     -0.01266201
N      -0.19403520     -1.50205164     -0.03557169
N       1.09487344     -1.17757865     -0.02760146
C       1.41629368      0.11265556      0.00303990
N       0.57320866      1.14914240      0.02734263
H      -1.43951097      1.61646606      0.03786637
H      -2.13014522     -0.82429431     -0.02009071
H       2.47689757      0.33235957      0.00854491
