12
b3lypvtz=-189893.86727996
C       1.74283746     -0.79694539     -0.00001729
C       0.68179138      0.26220475     -0.00003240
N       0.85302184      1.52026799     -0.00005895
C      -0.75652160     -0.25530709     -0.00002460
N      -1.69310832      0.71604877     -0.00005088
O      -0.99230734     -1.45165373     -0.00001870
H       2.73672022     -0.35159081     -0.00003999
H       1.63022598     -1.44359235      0.87123248
H       1.63020515     -1.44363636     -0.87123144
H       1.84245291      1.76811819     -0.00006911
H      -2.66518712      0.46459881     -0.00009390
H      -1.39764955      1.67802722     -0.00009622
