16
b3lypvtz=-170476.7363082
C       2.36351230     -0.77098567      0.00796479
C       1.49815372      0.48359999     -0.13169939
C       0.10650705      0.28595296      0.41068843
O      -0.88016848      1.26229707      0.04689348
C      -1.03620115     -0.08352769     -0.43079333
C      -2.22319653     -0.84805981      0.08413183
H       2.45106389     -1.07913047      1.05197180
H       1.94086035     -1.60849829     -0.55028397
H       3.37154953     -0.59421758     -0.36851736
H       1.42729876      0.78544808     -1.17893825
H       1.96517748      1.31681219      0.40154325
H       0.05809731     -0.00578297      1.45942974
H      -0.84638136     -0.18259761     -1.49824658
H      -2.11194566     -1.91501089     -0.12229752
H      -3.14009618     -0.50650282     -0.40025195
H      -2.33475205     -0.71065349      1.15971304
