15
b3lypvtz=-180538.98287552
C       1.14715952     -1.28660946     -0.02995206
C       0.41069473      0.04429195     -0.00218282
N       1.36785778      1.13096541     -0.07778302
C      -0.74472211      0.13566435     -1.02450223
O      -1.73129490     -0.09984860      0.00567624
C      -0.74397605      0.08266595      1.04351237
H       1.77367812     -1.35447201     -0.92012371
H       1.78920614     -1.39223835      0.84885124
H       0.44269880     -2.11838205     -0.03153719
H       0.92206596      2.03015823      0.06097066
H       2.09179054      1.03610459      0.62488776
H      -0.77908308     -0.62095367     -1.81123599
H      -0.85191120      1.13004218     -1.47108149
H      -0.78094557     -0.71465587      1.79011945
H      -0.85155668      1.05394935      1.54044979
