16
b3lypvtz=-168085.08846644
C      -1.75745819     -0.96323024     -0.45685697
C      -0.92708274     -0.31049947      0.65165481
N       0.16920932      0.51194300      0.16594075
C      -0.11678731      1.89907586     -0.14100859
C       1.39408101     -0.03137715     -0.12800385
N       1.81030499     -1.23373369     -0.03450043
H      -2.20795914     -0.21198625     -1.10715084
H      -2.56367009     -1.56046164     -0.02700708
H      -1.13980630     -1.61665829     -1.07312524
H      -0.51641667     -1.07696567      1.31235468
H      -1.56556068      0.32169478      1.27303050
H      -0.85608183      2.00166030     -0.94245707
H      -0.49770351      2.42411634      0.73980124
H       0.79625149      2.39644886     -0.46369440
H       2.10097187      0.71968077     -0.48211151
H       1.08953378     -1.87725752      0.28665298
