13
b3lypvtz=-200668.83013434
N       0.21888154      1.33158971      0.09435740
C       0.07281977      0.06776861      0.04474815
C      -1.23169036     -0.70198191      0.16341687
N      -2.36912070      0.16495172     -0.12439180
N       1.18782984     -0.71803438     -0.17751568
O       2.41123781     -0.02866784     -0.02170705
H      -0.68305631      1.78784754      0.19885194
H      -1.32446217     -1.04898219      1.19631785
H      -1.16924462     -1.59684704     -0.46856095
H      -2.47233741      0.30732951     -1.12172480
H      -3.22940018     -0.24325402      0.21564120
H       1.23322537     -1.57357092      0.36196162
H       2.09712542      0.89098721      0.11697126
