14
b3lypvtz=-169714.73702721
C      -1.70840735     -0.06741006      1.14058415
C      -1.15058743      0.55694907      0.10258918
C       0.13046109      0.22078241     -0.52462248
C       0.60926773      0.96164032     -1.53178533
C       0.90369516     -0.98578499     -0.04405117
O       1.32487690     -0.89578917      1.31753264
H      -2.67041571      0.24674348      1.52259009
H      -1.21852792     -0.88488838      1.65052393
H      -1.67436030      1.39604926     -0.34566367
H       0.07032533      1.82170254     -1.90915760
H       1.54878594      0.72360811     -2.01345376
H       0.27421854     -1.87639789     -0.08953200
H       1.76085611     -1.15127273     -0.70457713
H       1.79971190     -0.06593197      1.42882315
