16
b3lypvtz=-170491.08221644
C       1.60845748     -1.08404268     -0.01930704
C       0.64484237      0.07746906     -0.00569033
C       1.32253253      1.42138377      0.02820773
C      -0.68555947     -0.08827317     -0.00407273
C      -1.74409276      0.96940236     -0.02130862
O      -1.30123718     -1.32278666      0.00828654
H       2.40898038     -0.90281606     -0.74182819
H       2.09075943     -1.22061734      0.95447690
H       1.16117942     -2.04067437     -0.29810002
H       0.63074752      2.25585248      0.10460875
H       1.93333951      1.57576152     -0.86772745
H       2.00595146      1.48615794      0.88167501
H      -1.33942640      1.97277872     -0.10091465
H      -2.35215005      0.90749671      0.88449447
H      -2.41504378      0.79844763     -0.86631420
H      -0.63720645     -2.01471090      0.08168984
