10
b3lypvtz=-212445.53126019
N       2.50890482     -0.17859503     -0.00001959
C       1.24517446      0.26446139     -0.00005794
N       0.23670954     -0.53407728     -0.00010282
C      -1.01827052      0.10357131     -0.00013864
O      -1.24729253      1.28673136      0.00019952
O      -2.01817606     -0.80293410      0.00006837
H       3.28202629      0.45987864      0.00058782
H       2.69089233     -1.16836029      0.00038762
H       1.11902196      1.34794406     -0.00010567
H      -1.60456730     -1.67629106      0.00000132
