15
b3lypvtz=-180546.06225542
C       2.70445556      0.36186795     -0.64164780
N       1.90400616      0.36326077      0.33153336
C       0.68722587     -0.42719781      0.22002405
C      -0.54409501      0.46258660      0.40152380
C      -1.84656162     -0.31631953      0.42483938
O      -2.02448927     -0.94415587     -0.84567560
H       2.53324606     -0.20828357     -1.56390011
H       3.61906764      0.94870166     -0.58394725
H       0.70754208     -1.16784511      1.02608354
H       0.62603425     -0.96805588     -0.73202248
H      -0.44545451      1.01870511      1.33655544
H      -0.58451301      1.19719623     -0.40652252
H      -1.81924789     -1.06673414      1.22570312
H      -2.67666797      0.36733902      0.63683443
H      -2.84064833     -1.45116546     -0.82958136
