7
b3lypvtz=-221677.30358321
O       0.87432636     -0.26644924      0.02778633
C       0.25615271     -1.43113296      0.17127068
N       0.78186047     -2.61284681      0.06116460
O      -0.27144095     -3.45133253      0.29929392
N      -1.40361505     -2.68538137      0.54608404
N      -1.08761579     -1.47626418      0.46927882
H       1.80533225     -0.42229292     -0.17787840
