13
b3lypvtz=-208085.7310655
F       2.30279152      0.34087411     -0.04032117
C       1.25654846     -0.51304535      0.30913279
C       0.01882787     -0.13068274     -0.47139132
C      -0.77564256      1.10524143     -0.00972542
C      -1.91299193      0.10406194      0.25820460
O      -1.07818392     -1.01536033     -0.13775293
H       1.55300762     -1.53728224      0.07367569
H       1.08737835     -0.42425074      1.38435494
H       0.24321125     -0.15313332     -1.54202322
H      -0.97235446      1.84928028     -0.77709558
H      -0.37115545      1.59859953      0.87194168
H      -2.78506355      0.19993325     -0.39227869
H      -2.24593520      0.01095518      1.29368463
