16
b3lypvtz=-170476.4567339
C       2.15198977     -0.20479131      0.29911759
C       0.96722783     -0.41860334     -0.64387221
C      -0.33532916      0.13658418     -0.10675365
O      -0.31462314      1.52669628      0.14943630
C      -1.65007026     -0.45298348     -0.53694045
C      -1.14118377     -0.64200668      0.88024508
H       2.28398375      0.85432505      0.51917566
H       3.07666525     -0.58051856     -0.14146026
H       1.99654445     -0.72293725      1.24712490
H       0.83699230     -1.48430340     -0.84866101
H       1.17550073      0.05252646     -1.61175470
H      -0.28510358      1.98603076     -0.69720175
H      -1.64642826     -1.30423080     -1.20478795
H      -2.47431556      0.23320231     -0.67345064
H      -1.63146844     -0.07781620      1.66045427
H      -0.78977589     -1.62170000      1.17430685
