12
b3lypvtz=-192293.53592898
C      -2.75012037     -0.14719216     -0.00001898
C      -1.33324787      0.31412959      0.00001284
C      -0.26387825     -0.48000184      0.00003334
C       1.10000728      0.08222639      0.00003733
O       1.39603152      1.25346710     -0.00000069
O       2.03771911     -0.90112673     -0.00003243
H      -3.27956271      0.24028738     -0.87491792
H      -3.27960044      0.24028118      0.87485996
H      -2.82876139     -1.23383765     -0.00002444
H      -1.15856032      1.38577865      0.00001548
H      -0.35102544     -1.55885779      0.00003654
H       2.89877288     -0.45802114     -0.00007504
