13
b3lypvtz=-179744.05450778
O       1.96520999     -0.12817250     -1.03562374
C       0.80167447     -0.60347587     -0.44540129
C       0.30438059      0.04303030      0.88151382
C      -1.10473942     -0.50198289      0.55847688
C      -0.54950425      0.11038212     -0.74688649
N       0.02463170      1.28624172      0.04018694
H       1.91187073      0.83715247     -0.96716537
H       0.80259225     -1.69001450     -0.49093797
H       0.81399689      0.10517986      1.84142929
H      -1.93112147      0.04226223      1.01437251
H      -1.26171838     -1.58220433      0.59624239
H      -1.04573890      0.25181065     -1.70543503
H      -0.73143420      1.82969072      0.45922808
