13
b3lypvtz=-177385.78868284
C       1.25831218     -0.40979710     -0.42112821
C      -0.27984986     -0.23012116     -0.58630269
C      -0.10229915      0.96719980      0.38586895
N      -0.81126221      1.70947201      1.12438978
N       1.27169827      0.89675567      0.25679417
N      -1.12086429     -1.35079337     -0.24102311
H       1.85541969     -0.45819686     -1.33179314
H       1.50043518     -1.25731986      0.22502594
H      -0.53520346      0.10792536     -1.59031154
H      -1.80085318      1.52095266      0.98012830
H       1.94093712      1.22937021      0.93419011
H      -1.08972448     -1.54628722      0.75275080
H      -2.08674580     -1.17916015     -0.48858934
