16
b3lypvtz=-147192.10546932
C      -2.24932442      0.03268907     -0.03635973
C      -0.75609622      0.07445443     -0.00253683
C       0.02464417      1.15358494     -0.02207754
C       1.49018403      0.81888746      0.08163759
C       1.51524189     -0.71267616     -0.14925039
C       0.06904552     -1.18930916      0.11713658
H      -2.60834672     -0.55277489     -0.88814667
H      -2.64933834     -0.44942012      0.86115936
H      -2.68024536      1.03159683     -0.10449117
H      -0.34130124      2.17208354     -0.06534848
H       1.88057712      1.08712462      1.07038825
H       2.10395414      1.35757606     -0.64433360
H       2.24973134     -1.22126075      0.47460802
H       1.77856403     -0.91702332     -1.18813695
H      -0.25228145     -1.96530877     -0.58305427
H      -0.04412049     -1.61853079      1.12014486
