13
b3lypvtz=-177352.12923153528
C      -2.02208867      0.76581701     -0.02471336
C      -1.11810613     -0.41031332      0.13905793
N       0.16920298     -0.27189122      0.31579282
C       1.19072171     -1.15133483      0.48633709
N       2.43491192     -0.65988477      0.64669803
N       2.54357586      0.61500817      0.62365800
H      -1.75624336      1.37259214     -0.89599979
H      -3.04903429      0.43199994     -0.15945763
H      -2.00272634      1.42625052      0.84787157
H      -1.50687034     -1.41931554      0.11554324
H       0.57814724      0.67842993      0.34419617
H       1.00899418     -2.21197234      0.49277507
H       3.52951523      0.83461432      0.75579255
