15
b3lypvtz=-178150.62153933
C       2.32376485     -0.16655534     -0.52274185
C       1.28046280     -0.42835575      0.57203714
C      -0.10276868      0.03862062      0.21281159
N      -0.32226161      1.40735320      0.12925791
N      -1.02725693     -0.83046227      0.04157727
N      -2.28464946     -0.26413307     -0.31489835
H       2.04633252     -0.67137996     -1.44873102
H       3.30226845     -0.53706385     -0.21477110
H       2.43412558      0.89741419     -0.74280745
H       1.59285277      0.06013784      1.50072061
H       1.21196163     -1.49537154      0.77521478
H       0.50093659      1.97631388      0.01765860
H      -1.06780911      1.65489061     -0.50920623
H      -2.93600533     -1.03605251     -0.36060070
H      -2.60959507      0.35440393      0.42857880
