11
b3lypvtz=-202289.11282755
O       2.78535665      0.59760968      0.01834011
N       1.69920372     -0.17059137     -0.41257965
C       0.59467794      0.32533218     -0.03128282
C      -0.65737397     -0.36500455     -0.38156221
C      -1.84554946     -0.25941936      0.47791466
O      -1.76204064      0.48753770     -0.73219954
H       3.54076690      0.12519586     -0.34646181
H       0.54563791      1.25098821      0.54051995
H      -0.53995025     -1.24498927     -1.00421305
H      -2.56505326     -1.07199205      0.48006460
H      -1.79557553      0.32523297      1.39135976
