12
b3lypvtz=-145612.50803056
C       2.80684756     -0.89259782      0.00000632
C       1.94854363     -0.05659180      0.00000401
C       0.91451488      0.98105710     -0.00000216
C      -0.45251112      0.45523935      0.00001518
C      -1.57679523      0.03568011      0.00001892
C      -2.93740555     -0.48291923      0.00000170
H       3.56127076     -1.63883635      0.00000900
H       1.05830403      1.62539335      0.87369241
H       1.05828942      1.62537063     -0.87371593
H      -3.48598853     -0.15014320     -0.88328161
H      -3.48711914     -0.14724153      0.88148241
H      -2.93807169     -1.57466463      0.00179974
