15
b3lypvtz=-180566.73581232
C       2.67654376     -0.35029601      0.00006160
C       1.36276804      0.41895646     -0.00010386
N       0.23251174     -0.50587021     -0.00016601
C      -0.93833107     -0.04525618      0.00003717
C      -2.15360381     -0.92533442      0.00008632
O      -1.18448747      1.30836040      0.00028475
H       2.74781558     -0.98953006     -0.88095791
H       3.52782729      0.33326574      0.00006404
H       2.74768809     -0.98936539      0.88121168
H       1.31024162      1.07682115      0.87433277
H       1.31039273      1.07669159     -0.87464792
H      -1.84810292     -1.96700334     -0.00059841
H      -2.77019866     -0.73430321     -0.88254239
H      -2.76938596     -0.73526511      0.88348989
H      -2.13320995      1.47105360      0.00044027
