14
b3lypvtz=-190633.88197989
N       1.91504394     -1.05600590     -0.28865556
C       1.16825062     -0.11223937      0.08886198
O       1.59134837      1.19390884      0.07295135
C      -0.24550212     -0.33799989      0.55202899
C      -1.29042889      0.13702999     -0.46657032
N      -2.63519211     -0.02516284      0.08838150
H       2.82719015     -0.70098061     -0.57588432
H       0.91813180      1.76844947      0.45366004
H      -0.41987388      0.18023212      1.49981218
H      -0.36423859     -1.40539819      0.73141728
H      -1.12501934     -0.39832915     -1.41034021
H      -1.14693379      1.19945623     -0.68021933
H      -2.85061576     -1.00927580      0.20449105
H      -3.32853341      0.34664812     -0.54982861
