13
b3lypvtz=-156464.98236118
C       3.14149415     -0.05650819      0.01137805
C       1.94195470     -0.17549811      0.00077763
C       0.53940085     -0.35241275     -0.00899639
C      -0.32450241      0.68781993      0.00495290
N      -1.68528461      0.61237839     -0.05076967
C      -2.40009338     -0.64188892      0.02527514
H       4.19619659      0.05405314      0.02002834
H       0.17166970     -1.37065242     -0.03552830
H       0.06271965      1.69857618      0.03863437
H      -2.19254807      1.44388757      0.19009855
H      -2.13793100     -1.28320992     -0.81951577
H      -3.46965864     -0.44746959     -0.01742826
H      -2.17942854     -1.19162931      0.94767941
