11
b3lypvtz=-199881.37852316
C       1.45750405     -0.98845162      0.39456528
N       1.59700145      0.09493589     -0.25765581
N       0.58627640      1.02037708     -0.31108032
C      -0.66906519      1.01475550      0.28535620
N      -1.57878963      0.11848598      0.29810183
O      -1.23351593     -1.02815056     -0.43586308
H       2.30862273     -1.65762852      0.38545389
H       0.56963318     -1.27766899      0.94341528
H       0.96127684      1.93143217     -0.51194435
H      -0.96038104      1.94485872      0.76206387
H      -2.01824487     -1.57664664     -0.33670878
