16
b3lypvtz=-168080.86891704
C       2.62524618      0.04747849     -0.00376469
N       1.23747125      0.17071617     -0.43163050
C       0.28834426     -0.43499533      0.50095583
C      -1.14030718     -0.16070800      0.07698786
C      -1.55821334      1.28704775      0.03800569
N      -1.87604286     -1.15542120     -0.21281234
H       2.77865097      0.62954134      0.90725629
H       3.28107820      0.45690486     -0.77234993
H       2.94075163     -0.98639113      0.20397601
H       1.12452291     -0.26467846     -1.33981360
H       0.40936698     -1.51995130      0.61082556
H       0.45838880      0.01915200      1.48349728
H      -2.55920861      1.40247335     -0.37644600
H      -1.54737138      1.70784931      1.04734584
H      -0.84738272      1.86666175     -0.55149285
H      -2.81296807     -0.84781960     -0.48021846
