13
b3lypvtz=-203094.59054571
C       2.30734543     -0.50494505      0.40648485
N       1.02814272     -0.11518586      0.96430917
C       0.04556193      0.00849606      0.18847539
C      -1.32201707      0.37697159      0.70203573
O      -2.22578403     -0.70492306      0.59747831
O      -1.75044859      1.48274984     -0.06142761
H       3.04757882      0.26004861      0.64806995
H       2.63720150     -1.42791329      0.88733735
H       2.28818691     -0.65417068     -0.68099304
H       0.10931124     -0.15662621     -0.89816743
H      -1.26456144      0.60286774      1.76729263
H      -2.30080938     -0.94197847     -0.33533953
H      -2.59960805      1.77470877      0.28824423
