12
b3lypvtz=-192260.75409361
O       2.12205681      0.52958270      0.22267500
C       0.82009730      0.18062662      0.07873589
C       0.24416144     -0.95888764     -0.28908667
C      -1.24430385     -0.77534807     -0.27399679
O      -1.45560199      0.58518387      0.14080963
C      -0.20919076      1.22960715      0.37377247
H       2.68519502     -0.22146041      0.00644845
H       0.73581548     -1.88156884     -0.56031627
H      -1.70378227     -0.92440176     -1.25888627
H      -1.75121640     -1.44659295      0.43013518
H      -0.14497731      1.58076472      1.41103685
H      -0.09825346      2.10249462     -0.28132748
