12
b3lypvtz=-145605.8157738
C      -2.21975921     -0.98260918     -0.16441559
C      -1.21321673     -0.39102256      0.10622553
C       0.00006242      0.36598432      0.43695920
C       0.00021680      1.75552520     -0.24264488
C       1.21315929     -0.39132096      0.10623568
C       2.21960844     -0.98325849     -0.16398342
H      -3.10543490     -1.51570354     -0.40487927
H       0.00009720      0.52542651      1.52141161
H       0.88786984      2.31279571      0.05357728
H       0.00015725      1.64643957     -1.32568606
H      -0.88727019      2.31302271      0.05364639
H       3.10514280     -1.51651629     -0.40460646
