10
b3lypvtz=-165792.92345409
N      -2.04994910      0.16491039      0.00005045
C      -0.78191803      0.07306772      0.00007924
C       0.18714249      1.18196152     -0.00003762
C       1.39650365      0.61039257      0.00003279
N       1.33924647     -0.83720762      0.00006609
C       0.09975104     -1.14550295     -0.00003800
H      -2.48037200     -0.76238098      0.00002662
H      -0.06892396      2.22746135     -0.00013267
H       2.36804051      1.07841609      0.00004866
H      -0.25449406     -2.17001610     -0.00013057
