11
b3lypvtz=-202345.35689703
C       0.92784055      1.34830851     -0.01546673
C       0.30167109     -0.04085525      0.00172675
O       0.71083420     -0.68763625     -1.18011203
O       0.65203217     -0.78304995      1.14855765
C      -1.18392398      0.05180532      0.04353096
N      -2.32970490      0.13870185      0.02490342
H       0.59720856      1.90484457     -0.89003583
H       2.01216879      1.23830466     -0.06324964
H       0.65465031      1.89125399      0.88651113
H       0.31831912     -1.56960080     -1.19545898
H       1.61544608     -0.79318865      1.20478629
