12
b3lypvtz=-189847.49567899
C       2.24396021     -0.56354874      0.00000222
C       1.24256968      0.54073982     -0.00002478
C      -0.09375036      0.39912247      0.00000567
O      -0.93530451      1.45487030      0.00000422
N      -0.65966981     -0.89159065      0.00006948
N      -1.91013161     -0.85950990      0.00009000
H       2.89587052     -0.48999631     -0.87557397
H       1.77042277     -1.54129076      0.00003824
H       2.89588863     -0.48994194      0.87556053
H       1.61471187      1.55873407     -0.00005996
H      -1.83179030      1.06694559      0.00002806
H      -2.24854008     -1.82630895      0.00012029
