12
b3lypvtz=-168961.70117312
C      -2.83210139     -0.29887637      0.00003290
C      -1.50036424     -0.40539128      0.00001924
C      -0.62717108      0.75177502      0.00002639
C       0.72049130      0.77096700      0.00001428
C       1.59449782     -0.40302104     -0.00001082
O       2.80514694     -0.32857682     -0.00002375
H      -3.47117771     -1.17087187      0.00002751
H      -3.32080380      0.66807945      0.00005007
H      -1.05339190     -1.39138344      0.00000218
H      -1.14035014      1.70920918      0.00004340
H       1.24284384      1.72017680      0.00002265
H       1.10201435     -1.39321961     -0.00002505
