12
b3lypvtz=-189865.49593885
N      -1.82132583     -0.91842845     -0.24756644
C      -1.28811395      0.16760470      0.57957402
C      -0.39714577      1.08890739     -0.22162019
N       0.86453844      1.02523297     -0.32549624
C       1.65679590      0.04145404      0.24401447
O       1.59101767     -1.13773571     -0.02138555
H      -1.05503324     -1.44788589     -0.64858425
H      -2.38664005     -0.56252588     -1.00946957
H      -0.73355271     -0.27155593      1.40835108
H      -2.12316371      0.73309703      0.99646504
H      -0.90110910      1.84883970     -0.82322000
H       2.44366736      0.45574803      0.89624663
