12
b3lypvtz=-168910.49783704785
C       1.19141010      0.16410359      0.35602773
C       0.40698030     -0.77589910     -0.55428806
C      -0.14343194      0.58763302     -0.23580372
C      -1.28709633     -0.12307446      0.48718781
C      -0.77959484     -1.33087912      0.22030936
O      -0.25371557      1.63169493     -1.14076194
H       1.28406387     -0.06622041      1.41068224
H       2.05569947      0.63998290     -0.09542531
H       0.78260173     -1.09971375     -1.51273958
H      -2.07696471      0.23188862      1.13618941
H      -0.99400753     -2.32418572      0.59044520
H      -0.18594454      2.46466951     -0.66182315
