10
b3lypvtz=-217419.23799802
C      -1.97466567     -0.34962524      0.06699049
C      -0.84720243      0.30288222     -0.20222675
N       0.38045451     -0.36226033     -0.28265741
C       1.44307264      0.25393920     -0.53587854
O       2.64936588     -0.30060349     -0.63042326
F       1.55793202      1.56606775     -0.75469012
H      -2.91514832      0.17820952      0.12561294
H      -1.97445856     -1.41821931      0.23237171
H      -0.85485322      1.37648578     -0.36713233
H       2.53560315     -1.24687612     -0.46806674
