15
b3lypvtz=-185560.37131605
C      -2.71579438     -0.48420299      0.42134997
C      -1.78671557      0.38296170     -0.43866821
C      -0.34500668     -0.00999172     -0.31319503
C       0.62886323      0.78304117      0.11475406
C       2.06477809      0.39466319      0.24846387
F       2.28574253     -0.92640145     -0.12730188
H      -2.47719853     -0.38031832      1.48094056
H      -2.61908181     -1.54026008      0.16179409
H      -3.75957155     -0.19990143      0.27868609
H      -2.09220586      0.28908000     -1.48648509
H      -1.90854289      1.43575769     -0.17255038
H      -0.09654732     -1.03040013     -0.58839666
H       0.41442043      1.80994382      0.40090261
H       2.40453828      0.50285226      1.28384879
H       2.70116903      1.02593930     -0.38059581
