11
b3lypvtz=-202346.48015154
C      -2.33735648     -0.08562615      0.00001782
N      -1.04487773     -0.75127082      0.00006697
C      -0.00163439     -0.03760731      0.00006362
O       0.03790985      1.31129595      0.00003338
C       1.33400235     -0.70019536      0.00004894
O       2.35237203     -0.04715128     -0.00005878
H      -3.12604175     -0.83421494      0.00007498
H      -2.45389382      0.55466581     -0.87931698
H      -2.45389750      0.55481177      0.87924533
H       0.97893679      1.56073417      0.00000231
H       1.31510263     -1.79976482     -0.00002459
