14
b3lypvtz=-167310.57659634
C       1.84192999      0.95665540     -0.17708083
N       0.68153873      0.87603368      0.30726074
C       0.00520735     -0.40558640      0.45605158
C       0.61297959     -1.62289278     -0.24985257
C      -1.46048613     -0.24230089      0.06938292
N      -2.04901370      0.80864417     -0.30471540
H       2.30414258      1.93828337     -0.26052142
H       2.43498319      0.10658651     -0.52485398
H       0.00062144     -0.60932394      1.53594998
H      -0.01458373     -2.49797238     -0.07824831
H       0.67830114     -1.46327047     -1.32762146
H       1.60861427     -1.85752390      0.12703864
H      -2.04426332     -1.16426025      0.13855938
H      -1.38496341      1.58800289     -0.30790229
