15
b3lypvtz=-157210.47710761
N       1.95870473      0.06819238     -0.00000197
C       0.65595556     -0.57504933     -0.00000035
C      -0.44566117      0.00235350      0.93822083
C      -0.52321193      1.24036292     -0.00000072
C      -0.44566261      0.00235244     -0.93822109
C      -1.47584489     -0.68293798      0.00000087
H       2.49312863     -0.21746608     -0.81246126
H       2.49312121     -0.21744836      0.81246840
H       0.69990444     -1.67164000     -0.00000033
H      -0.44312740     -0.00461303      2.02792116
H       0.33590790      1.90329217     -0.00000179
H      -1.46914764      1.78205517     -0.00000008
H      -0.44312966     -0.00461457     -2.02792138
H      -2.48067142     -0.26303534      0.00000113
H      -1.49529674     -1.77396288      0.00000158
