12
b3lypvtz=-168921.42641654
C       2.41658704     -0.58053841     -0.43870562
C       1.31776743     -0.15169271     -0.21314774
C       0.00105419      0.38311426      0.02686872
O      -0.09542536      1.78759703     -0.02094339
C      -1.21124977     -0.41525056     -0.41069246
C      -0.89263160     -0.25473011      1.05177614
H       3.38934429     -0.96142315     -0.62581337
H       0.15681216      2.07487118     -0.90578574
H      -1.04702798     -1.37699717     -0.87496716
H      -2.03070801      0.16539264     -0.81029631
H      -1.49607954      0.43426297      1.62532919
H      -0.50844284     -1.10450597      1.59627776
