14
b3lypvtz=-169701.95673628
C      -2.55417797      0.01055072      0.09908870
C      -1.33594153     -0.03471039     -0.42544624
C      -0.08042384      0.02234796      0.37146563
C       0.98969961      1.07198486     -0.01672783
C       1.93960943     -0.12946195     -0.12446726
O       0.84468178     -1.05907492      0.05288323
H      -3.44260691     -0.01105640     -0.51810173
H      -2.70518150      0.07254741      1.17064816
H      -1.20391900     -0.11157592     -1.50084779
H      -0.31291677      0.02213794      1.44147502
H       1.22072213      1.82100729      0.73713982
H       0.78677042      1.56552746     -0.96543387
H       2.67103590     -0.21145717      0.68474555
H       2.44592026     -0.27552188     -1.08026540
