13
b3lypvtz=-177351.09495159512
C      -2.69921500      0.36659483      0.20860839
N      -1.45974151     -0.13039258     -0.00520496
C      -0.26585444      0.42927314     -0.09198006
N       0.88603651     -0.33393804     -0.32589011
C       2.15494488      0.17756744     -0.42733868
N       3.25109969     -0.43988879     -0.63742529
H      -3.51400026     -0.32993662      0.23197365
H      -2.82613578      1.42499077      0.34588761
H      -1.45727948     -1.13731646     -0.12107827
H      -0.15858799      1.49371543      0.01709709
H       0.79164348     -1.33325007     -0.42941873
H       2.18221389      1.25984754     -0.30569220
H       3.11487603     -1.44726661     -0.73661933
