11
b3lypvtz=-179019.94224079
N       2.58077987     -0.00007340     -0.31284837
C       1.50196669     -0.00005135      0.08855286
C       0.13687184     -0.00002531      0.57466433
C      -0.85105074     -1.03754462     -0.02053003
O      -1.80017552      0.00004742     -0.33792826
C      -0.85099492      1.03757406     -0.02048301
H       0.13927496     -0.00005000      1.66326565
H      -1.25479776     -1.76683444      0.68170687
H      -0.47935323     -1.54385410     -0.91378291
H      -0.47927030      1.54390404     -0.91371301
H      -1.25470290      1.76685370      0.68178688
