9
b3lypvtz=-222406.55539752
C       0.28865836      0.56951202      0.65184097
N       1.48243255      0.90029532      0.99413127
O       2.50038285      0.13945101      0.51946323
N       0.09102893     -0.54064431     -0.18080537
N      -1.01026227     -0.92873345     -0.55598331
O      -2.08908246     -0.14857305     -0.07007372
H      -0.52335283      1.17101647      1.02670529
H       2.11111552     -0.56823882     -0.03311288
H      -2.85092065     -0.59408520     -0.45985257
