12
b3lypvtz=-189877.39609126
N      -2.06766055     -0.96019616      0.00080324
C      -1.10198838     -0.12849541      0.00107953
O      -1.22796468      1.24284357      0.00155752
C       0.27911148     -0.57331418      0.00526846
C       1.33118894      0.26403682      0.00645500
N       2.64985952     -0.10327075     -0.05137747
H      -2.97841429     -0.50296792      0.00067252
H      -2.16565909      1.46336652     -0.00165148
H       0.41163172     -1.64667039      0.00332803
H       1.16336178      1.33308433      0.01026253
H       3.33702841      0.56036926      0.25865309
H       2.88361213     -1.06558569      0.12907802
