12
b3lypvtz=-189837.51261194
C      -2.99289116     -0.13917941     -0.00001079
C      -1.59987790      0.38777189     -0.00002404
N      -0.58348264     -0.37897728     -0.00007453
C       0.66676695      0.21946460     -0.00003514
N       1.70010651     -0.52676526     -0.00001914
O       2.86425999      0.24713370     -0.00003003
H      -2.99059177     -1.22672386     -0.00003819
H      -3.53741055      0.22425728      0.87628754
H      -3.53742598      0.22430146     -0.87628109
H      -1.48708091      1.48114321      0.00000165
H       0.76017953      1.31051325      0.00004628
H       3.55914894     -0.41871757     -0.00002652
