15
b3lypvtz=-180548.79824693
C       2.17454919     -0.67565885     -0.00291661
N       1.32566300      0.49561520     -0.08686340
C      -0.07347013      0.34720657      0.01234108
C      -0.80929944      1.65719192     -0.00560003
C      -0.67922385     -0.84745108      0.03210937
O      -2.03676837     -1.08587823     -0.00862171
H       3.21640056     -0.36004326     -0.03719360
H       2.02121268     -1.27149736      0.90875101
H       1.99337390     -1.32749978     -0.86004167
H       1.66108562      1.25201976      0.49338650
H      -0.37595889      2.35037396      0.72182826
H      -0.74513565      2.13665126     -0.98551291
H      -1.86308989      1.55729246      0.25637903
H      -0.13383058     -1.77724091      0.05647108
H      -2.50995414     -0.25422667     -0.10579940
