14
b3lypvtz=-146427.12228039
C       2.20127614     -0.00686926     -0.00000074
C       0.70649531     -0.04330999     -0.00000256
C      -0.09579289     -1.12390294     -0.00000070
C      -1.53342523     -0.69254381      0.00000212
C      -1.43618850      0.80603760      0.00000343
C      -0.14215671      1.16046022     -0.00000078
H       2.58369075      0.52179599     -0.87750860
H       2.62436858     -1.01112226     -0.00000530
H       2.58369093      0.52178778      0.87751212
H       0.22398860     -2.15571758     -0.00000199
H      -2.07910243     -1.06600381     -0.87489825
H      -2.07910726     -1.06601384      0.87489502
H      -2.28916763      1.46772214     -0.00000542
H       0.24183833      2.17167276      0.00000765
