12
b3lypvtz=-166512.66445871
C       2.34774955     -0.64219515      0.08873509
C       1.42976144      0.13078689     -0.01380729
C       0.45234671      1.16209315     -0.11335556
N      -0.83187364      1.13093109      0.00625543
N      -1.54779605      0.02474240      0.22705527
C      -1.14906077     -1.33192985     -0.12876917
H       3.14194822     -1.33981798      0.18314681
H       0.85171429      2.15855970     -0.26872344
H      -2.52531684      0.22481520      0.10088779
H      -0.77127319     -1.38870803     -1.15450867
H      -0.38393604     -1.71468919      0.54181633
H      -2.03340368     -1.96192922     -0.04282261
