18
b3lypvtz=-171249.69406323
C       2.67381350     -0.23239747     -0.21672656
C       1.39603936      0.33751508      0.36781523
O       0.29751283     -0.35262343     -0.20296553
C      -0.98578163     -0.00543559      0.31796664
C      -1.48181688      1.32811096     -0.23970273
C      -1.91927595     -1.15472603     -0.03108475
H       2.68956621     -0.10294116     -1.29931770
H       3.54395188      0.27394916      0.20448504
H       2.75305523     -1.29790059      0.00065496
H       1.38401603      0.21555824      1.46014975
H       1.33493062      1.41307278      0.16004104
H      -0.90774563      0.07239271      1.41196355
H      -2.46804663      1.56778830      0.16203935
H      -0.81247979      2.14920161      0.01821271
H      -1.55596130      1.27482354     -1.32740940
H      -1.98607426     -1.26907590     -1.11441388
H      -2.92152270     -0.97194425      0.35910601
H      -1.54661589     -2.08917697      0.38803727
