14
b3lypvtz=-190633.39056467
C      -2.03851831     -0.84801744     -0.00916257
N      -0.59038559     -0.80198137      0.01553898
C      -0.02991077      0.33477605      0.00464219
N      -0.62517628      1.57877758     -0.06358851
O       1.31761836      0.47278214      0.01167307
C       2.07700693     -0.73813044     -0.00787907
H      -2.36546284     -1.88678800     -0.00209022
H      -2.49370562     -0.36258537      0.86689046
H      -2.45924959     -0.37364489     -0.90504501
H      -0.03781061      2.35322591      0.19888481
H      -1.57175606      1.63636117      0.27116524
H       1.85787590     -1.34692705      0.86854313
H       3.11839597     -0.42617734     -0.00662841
H       1.85240649     -1.32083596     -0.90055710
