13
b3lypvtz=-156472.07971295
C       1.46292985      0.15411208     -0.17555111
C       0.66843663      1.19995958      0.04723174
C      -0.70929973      0.74912952      0.39176127
N      -1.35308320     -0.01195832     -0.71756983
C      -0.67214289     -0.73753806      0.37266891
C       0.74967418     -1.16538665      0.03528893
H       2.49247577      0.21256028     -0.50223889
H       0.95263821      2.23885661     -0.04346207
H      -1.33918867      1.31298414      1.06681305
H      -2.35585759     -0.04800961     -0.55347876
H      -1.26926865     -1.33109452      1.05181767
H       1.19932638     -1.74118659      0.85037431
H       0.78093871     -1.79348045     -0.85899621
