11
b3lypvtz=-176617.11013453262
C      -1.12045367      0.76645719     -0.00567971
C      -0.34924617     -0.51037817      0.20796423
N      -0.98233807     -1.56638486      0.55217918
C       1.09582713     -0.47007054      0.00799945
N       1.70677103      0.62627563     -0.34410108
N       2.22045187      1.58534838     -0.64947961
H      -2.17389067      0.57339375      0.17519949
H      -0.99467676      1.13875432     -1.02521948
H      -0.77959572      1.55177450      0.67300655
H      -0.35422097     -2.36253269      0.66656941
H       1.73137201     -1.33263751      0.13785286
