16
b3lypvtz=-168062.8486459
C      -1.77638130      0.39192644     -0.30580822
C      -1.05011627     -0.87196225      0.07432237
C       0.32941764     -0.86527487      0.62880954
N      -0.80410795     -1.19970232      1.49541869
N       0.99844729      0.38611841      0.84256158
C       1.84551430      0.79248373     -0.27742183
H      -1.69813602      0.57637293     -1.37989322
H      -2.83887793      0.31053572     -0.06465784
H      -1.36464303      1.25156138      0.22134485
H      -1.33165297     -1.74578589     -0.50455539
H       0.96829652     -1.72204538      0.40536112
H      -1.02108051     -0.37736932      2.05390841
H       1.55608238      0.32639154      1.68694169
H       1.22238986      1.01267153     -1.14503920
H       2.38385187      1.70238483     -0.01244287
H       2.58099611      0.03169353     -0.57687386
