17
b3lypvtz=-158021.22796986
C      -2.01996844      0.46406082     -0.71786688
C      -1.47795315     -0.58695241      0.25022644
C      -0.22699908     -0.12926712      1.02349925
C       0.97925476      0.15846721      0.15793918
C       1.60358683     -1.02027467     -0.55257280
N       1.40315077      1.35504010      0.08358509
H      -2.92276230      0.10778193     -1.21658477
H      -2.26840528      1.38800900     -0.19220157
H      -1.29036120      0.71820841     -1.48825512
H      -1.26534618     -1.51396018     -0.28930136
H      -2.24988046     -0.83863302      0.98156696
H       0.04075458     -0.90667212      1.74681009
H      -0.45208565      0.77956441      1.58202597
H       0.89160839     -1.49062628     -1.23429145
H       2.47980306     -0.71767700     -1.12506233
H       1.90256545     -1.78709289      0.16664158
H       2.22138789      1.41421081     -0.52527329
