10
b3lypvtz=-189068.67047192
C      -0.44755134      1.31031779      0.02175737
C       0.84859060      1.04012634     -0.04310612
O       1.32162521     -0.21493862      0.26632217
N       0.42686175     -1.29839431     -0.14465135
C      -0.80425310     -1.00068472     -0.02855331
N      -1.30966835      0.23088630      0.35845454
H      -0.88642178      2.26004356     -0.23531190
H       1.61365178      1.74049004     -0.34225042
H      -1.50992299     -1.78176550     -0.28439579
H      -2.28981179      0.36781912      0.17353481
