14
b3lypvtz=-169722.00801086
C      -2.16842483     -0.87055949      0.00000030
C      -0.83566701     -0.83390476     -0.00000136
C      -0.04077775      0.38836507      0.00000085
O      -0.81681022      1.52332819      0.00000210
C       1.30123672      0.44690732      0.00000200
C       2.27160308     -0.69309207      0.00000220
H      -2.69689867     -1.81394053     -0.00000148
H      -2.75889915      0.03431473      0.00000354
H      -0.27923679     -1.76067686     -0.00000408
H      -0.24179996      2.29514034      0.00000622
H       1.75000737      1.43800736      0.00000502
H       2.92449771     -0.65231792      0.87692467
H       2.92452403     -0.65229404     -0.87689934
H       1.78503347     -1.66607835     -0.00001865
