15
b3lypvtz=-180551.17643253
C       2.27916651     -0.72967500     -0.15652091
C       1.16877337     -0.02898217      0.05790464
O       1.17590581      1.32917457      0.14566224
C      -0.19680289     -0.63702959      0.27587258
N      -1.21689753      0.19994213     -0.35949607
C      -2.58445760     -0.10110819      0.05095836
H       2.24023866     -1.80707603     -0.20640025
H       3.23641215     -0.24090580     -0.26359917
H       0.24265036      1.59903192      0.08118108
H      -0.20441208     -1.68139546     -0.05736570
H      -0.41266708     -0.63760993      1.34960918
H      -1.13544046      0.12550279     -1.36718725
H      -2.87993208     -1.14507495     -0.12309579
H      -2.69643157      0.10481434      1.11652525
H      -3.27650857      0.54515939     -0.48855420
