13
b3lypvtz=-179772.150610686
C       1.90723299     -0.04766059      0.14165276
N       0.48166967      0.00133021      0.37775431
C      -0.47598341     -0.01579524     -0.74468499
C      -1.79795694      0.05058038      0.01256950
O      -1.39577821      0.09517873      1.42989825
C      -0.06971336      0.06411027      1.58470108
H       2.41032433     -0.02511017      1.10408113
H       2.18336149     -0.96276119     -0.38905025
H       2.23317613      0.80750742     -0.45645542
H      -0.36094478     -0.92771141     -1.33447061
H      -0.31168293      0.83952839     -1.40354911
H      -2.37738019      0.94736472     -0.19614102
H      -2.42632479     -0.82656153     -0.12630564
