13
b3lypvtz=-179778.38012314
C       2.42717837      0.72154151      0.03421402
C       1.85532850     -0.47089771     -0.10967875
O       0.53417115     -0.77685626     -0.08675929
C      -0.37954076      0.28857696      0.13225055
C      -1.76915523     -0.29004410      0.18285872
N      -2.84147138      0.28066117     -0.16536495
H       3.50350834      0.78886266     -0.00810962
H       1.87755946      1.63690054      0.19163600
H       2.43577828     -1.36994106     -0.27139932
H      -0.29854433      1.03836545     -0.66201728
H      -0.15163473      0.77989722      1.08756733
H      -1.82790480     -1.29944112      0.59383907
H      -2.66139587      1.21427275     -0.54394050
