13
b3lypvtz=-177350.02600176
C      -0.78639427     -1.34990594     -0.32770518
N       0.14528788     -0.25788064     -0.14868263
N      -0.21239652      1.02798333     -0.19402969
C      -1.42839430      1.36718823     -0.40366190
N       1.44355088     -0.60125273      0.07659695
C       2.32824340      0.30075946      0.24636230
H      -1.26292427     -1.30210119     -1.31190095
H      -1.56986944     -1.32698497      0.43626421
H      -0.22345356     -2.27235056     -0.24196303
H      -1.64085134      2.42733779     -0.42718714
H      -2.24940916      0.67239908     -0.55800090
H       2.12010742      1.36491096      0.22491315
H       3.33650327     -0.05010281      0.42001015
