19
b3lypvtz=-158781.85760474
C       2.12713615      0.03619979     -0.42111979
C       0.79942699     -0.72037336     -0.45021053
C      -0.40829521      0.00311515      0.18632587
C      -0.66249685      1.36219809     -0.47561063
C      -1.65652490     -0.88401808      0.02228155
N      -0.09153162      0.25379638      1.60637173
H       2.93627621     -0.59981960     -0.78431021
H       2.10308861      0.92359546     -1.05500681
H       2.36914909      0.35484281      0.59202018
H       0.92234947     -1.67630310      0.07078626
H       0.54134141     -0.97412663     -1.48219828
H      -1.54901267      1.83597314     -0.04652712
H      -0.83444705      1.24951746     -1.54732925
H       0.17975332      2.03557576     -0.32569092
H      -2.52514993     -0.41689848      0.49195960
H      -1.50344816     -1.85783645      0.49348917
H      -1.89638569     -1.05623814     -1.02977384
H       0.00082553     -0.62607931      2.10378044
H      -0.85205471      0.75687912      2.05076261
