13
b3lypvtz=-179792.85376093
N       2.46222639     -0.82217774     -0.06125263
C       1.95133924      0.47376147     -0.00246775
C       0.65700606      0.83655302     -0.00160146
C      -0.48242131     -0.05724319     -0.01674549
C      -1.75533284      0.35528104      0.02266640
O      -2.86893030     -0.43209942     -0.00049119
H       3.38805688     -0.92543114      0.32168292
H       1.84889660     -1.55136709      0.26835951
H       2.71338791      1.24232178     -0.01822706
H       0.44930676      1.89921748     -0.00247261
H      -0.30090472     -1.12814154     -0.08037818
H      -2.02508418      1.40225460      0.07591788
H      -2.60526152     -1.35769827     -0.05655535
