8
b3lypvtz=-239983.1574579059
C      -0.79681594     -0.26917042     -0.18573276
N       0.15058259      0.55900520      0.02381622
C       1.39417973     -0.00736624      0.28376959
O       1.72507057     -1.15026027      0.34237412
F       2.28595558      0.97560663      0.48487273
O      -2.02668338      0.13662634     -0.44494700
H      -0.70071057     -1.35268389     -0.17451262
H      -2.03157859      1.10824266     -0.43764124
