11
b3lypvtz=-179027.78679948
C       1.83627090     -0.08305337     -0.17471419
C       0.65323616      0.08853319      0.39543071
C      -0.65448431     -0.21438231     -0.29231574
C      -1.50143454      0.99640455     -0.34742325
N      -2.16153073      1.93881334     -0.35329082
O      -1.36108019     -1.29391467      0.30829576
H       1.93080731     -0.43933226     -1.19341839
H       2.75465871      0.12951070      0.35546304
H       0.57601303      0.45529839      1.41411266
H      -0.45977402     -0.53232850     -1.31740206
H      -1.61268233     -1.04554906      1.20526226
