14
b3lypvtz=-169698.45751755
C       2.37305823      0.31675801     -1.47942148
C       1.63378228      0.21793076     -0.53886333
C       0.71531525      0.09305836      0.58893261
C      -0.53819004     -0.74834932      0.28331495
C      -1.37801375     -0.21462524     -0.87267864
O      -1.83962746      1.11792474     -0.64859512
H       3.03670544      0.40316448     -2.30306070
H       1.24800734     -0.34592148      1.43611191
H       0.40450266      1.09094075      0.90963463
H      -0.24385856     -1.77614621      0.05425699
H      -1.15278886     -0.77722456      1.18573608
H      -0.81458563     -0.27534336     -1.80812281
H      -2.27016749     -0.83273056     -0.98480162
H      -1.17413943      1.73066365     -0.97234349
