14
b3lypvtz=-167321.63332582
C       2.08395935     -0.63370971     -0.47992738
C       1.30579401      0.17060693      0.57330851
C      -0.12210095      0.43000794      0.15770793
N      -0.59790431      1.53691861     -0.24478786
C      -1.06160454     -0.74733324      0.21322827
N      -2.27547172     -0.73077321     -0.13888010
H       2.13582498     -0.08919403     -1.42343137
H       3.10237629     -0.82334640     -0.14031642
H       1.61383327     -1.59797455     -0.67731966
H       1.80419058      1.12410136      0.75780682
H       1.30486446     -0.38043367      1.51883244
H       0.10738893      2.27326969     -0.24386977
H      -0.64576915     -1.67940819      0.59973892
H      -2.50776920      0.21151547     -0.47296132
