11
b3lypvtz=-202328.034247
C       1.52992853      0.12594727     -0.43931257
C       0.47144691     -0.10012482      0.55600593
O       1.09552375      1.17195631      0.43172873
C      -0.96087775     -0.16110511      0.13171788
N      -1.65084849      0.76152501     -0.38088538
O      -1.47765440     -1.38998255      0.36236827
H       1.25323431      0.24865402     -1.48066136
H       2.52813688     -0.25355342     -0.24970561
H       0.71206269     -0.65642291      1.45594033
H      -1.10165011      1.61509346     -0.45408069
H      -2.39930232     -1.36198726      0.06688450
