17
b3lypvtz=-158016.95469309
C      -2.69778966      0.75831984     -0.13583339
C      -1.87044769     -0.45530091      0.30647312
C      -0.49605767     -0.45984884     -0.29310010
N       0.55614906     -0.44943285      0.40377844
C       1.84302491     -0.44466648     -0.27310121
C       2.66985023      0.77012327      0.14049928
H      -3.70498787      0.71269355      0.27970487
H      -2.78899059      0.80332509     -1.22314333
H      -2.23635950      1.68823387      0.19968878
H      -2.38613182     -1.37066073     -0.00456294
H      -1.77310785     -0.48580084      1.39162449
H      -0.45211115     -0.46442666     -1.39493621
H       1.73108394     -0.47443491     -1.36723774
H       2.37190547     -1.35407810      0.02604383
H       2.78160849      0.80431017      1.22431996
H       3.66276445      0.73009893     -0.31039758
H       2.18730924      1.69534460     -0.17850829
