14
b3lypvtz=-167321.87213083
C       2.37660533     -0.81262821      0.01778093
N       1.82435340      0.52232164     -0.02708601
C       0.49134696      0.77816612      0.00529887
C      -0.51610488     -0.12481183     -0.00292311
C      -1.89983677      0.29918347      0.00668859
N      -2.95734355     -0.41832799      0.00029933
H       2.03967797     -1.40152978     -0.83913938
H       3.46212908     -0.75235196     -0.01658726
H       2.08520913     -1.34449482      0.92964265
H       2.45062669      1.29420269      0.10347189
H       0.24818368      1.83508743      0.02609658
H      -0.31189698     -1.18914208     -0.02021773
H      -2.05220023      1.38322510      0.02347353
H      -2.71455483     -1.41176878     -0.01596887
