11
b3lypvtz=-199891.99354244
N       3.04172797      0.10841852      0.68848049
N       2.07849742     -0.34843764      0.06956425
N       0.91812484      0.44463920      0.30410230
C      -0.11478258     -0.15753061     -0.12756917
C      -1.47966176      0.44608021      0.01045001
O      -2.26854200      0.25241970     -1.15581866
H       3.82970261     -0.51140294      0.46054658
H      -0.03391330     -1.13662016     -0.60874113
H      -1.38424229      1.51924978      0.16659153
H      -1.96652775      0.02559138      0.90009311
H      -2.62028315     -0.64250743     -1.15769932
