12
b3lypvtz=-189832.63864546
C       0.79393303      1.09465848      0.07882963
N      -0.43405026      1.40536535     -0.06806942
O      -1.35339301      0.35453714     -0.18138385
C      -0.87924554     -0.91092566      0.31296365
N       0.38843817     -1.31329779     -0.22388824
C       1.38724798     -0.28571392      0.07151096
H       1.45488816      1.95060372      0.18092979
H      -0.79326053     -0.84000119      1.40179713
H      -1.66168376     -1.61844676      0.04878690
H       0.30922491     -1.44788338     -1.22431967
H       1.86782679     -0.49012194      1.03562678
H       2.18310805     -0.32787806     -0.67528067
