15
b3lypvtz=-157247.6510073
C       2.49390445     -0.86979209      0.00009325
C       1.92770770      0.51546858     -0.00004140
C       0.64104441      0.88582360     -0.00005379
C      -0.51551468      0.00261711      0.00005810
N      -1.69683975      0.47255382     -0.00004949
C      -2.80064641     -0.47848484     -0.00001832
H       1.73433576     -1.64828588      0.00018412
H       3.13212108     -1.02062777     -0.87524057
H       3.13214598     -1.02044647      0.87544023
H       2.66826806      1.30941436     -0.00013815
H       0.39384387      1.94092514     -0.00015455
H      -0.33058719     -1.07943493      0.00016660
H      -3.74675202      0.06008086      0.00072734
H      -2.77693303     -1.12344112      0.88459682
H      -2.77777324     -1.12232637     -0.88546318
