14
b3lypvtz=-169705.02093407
C       1.14465315      0.78054172      0.09557138
C       1.14465255     -0.78054317      0.09557026
C      -0.37352413     -0.97567267     -0.07006504
C      -0.98779680     -0.00000057      0.95243489
C      -0.37352339      0.97567267     -0.07006351
O      -0.69206293      0.00000094     -1.11951899
H       1.52981011      1.21708961      1.01735869
H       1.69184186      1.20101294     -0.74597761
H       1.69184109     -1.20101364     -0.74597922
H       1.52980901     -1.21709265      1.01735703
H      -0.76271981     -1.97268427     -0.25740632
H      -2.07394637     -0.00000018      0.91499790
H      -0.61853005     -0.00000159      1.97862576
H      -0.76271830      1.97268485     -0.25740321
