12
b3lypvtz=-168930.79262923
C       1.06154634     -0.49566495     -0.08187532
C      -0.16028373     -0.37613132      0.89043828
C      -1.04421206     -0.35667412     -0.40221164
C       0.15615797      0.57698756     -0.77639066
C      -0.02304009      1.13126566      0.64248853
O      -0.04407105      2.16720613      1.23089873
H       2.03438385     -0.17578625      0.28578471
H       1.11707765     -1.44447058     -0.61384494
H      -0.33650319     -0.91727737      1.81434266
H      -1.06110740     -1.30062417     -0.94535948
H      -2.03276200      0.09263726     -0.33284363
H       0.33281370      1.09853216     -1.71142722
