18
b3lypvtz=-171250.31021478
C      -3.01102682     -0.29747952      0.09049861
C      -1.54312303     -0.39831285     -0.32286765
C      -0.69018119      0.74988662      0.22563663
C       0.77419367      0.74708031     -0.22951027
C       1.60402410     -0.40968479      0.31964493
O       2.98657746     -0.30290180     -0.01339155
H      -3.59810401     -1.12283379     -0.31540942
H      -3.11692472     -0.31886411      1.17746583
H      -3.45742717      0.63401654     -0.26480975
H      -1.47183480     -0.40531855     -1.41546158
H      -1.14155280     -1.35762947      0.01347216
H      -1.14605691      1.69730310     -0.07702924
H      -0.72775737      0.73693040      1.32061188
H       0.81424677      0.72853599     -1.32539392
H       1.25635468      1.67675193      0.08231991
H       1.56871859     -0.40661104      1.41097759
H       1.20421057     -1.37328683     -0.01531488
H       3.07304298     -0.35585713     -0.97005528
