13
b3lypvtz=-156475.53904091
C       1.43397085      0.04541994      0.19982107
C       0.72929521      1.16122174     -0.02400826
C      -0.66253593      0.78574721     -0.40694126
C      -1.44676167      0.01056346      0.63439098
C      -0.64452241     -0.73722802     -0.40179413
N       0.72337496     -1.11766368     -0.12436926
H       2.45305803     -0.04159710      0.54615928
H       1.10274456      2.17002050      0.03750995
H      -1.20180677      1.35008404     -1.15525087
H      -2.52084414     -0.02884506      0.51613072
H      -1.09357007      0.04032743      1.65663049
H      -1.16183374     -1.33579298     -1.13904826
H       0.87089614     -1.93269648      0.45224155
