16
b3lypvtz=-168080.85831213
C       2.88984139     -0.38929860     -0.10453393
C       1.75506948      0.62120554      0.04510341
N       0.52550160     -0.04279484      0.44842012
C      -0.48739835      0.05809732     -0.29739633
C      -1.79353040     -0.60962105      0.02656412
N      -2.88635102      0.36587942     -0.05932126
H       3.82694617      0.11793537     -0.33958157
H       2.67469911     -1.09769921     -0.90617587
H       3.02220378     -0.95405852      0.81850039
H       2.01399309      1.33391944      0.83320979
H       1.62668723      1.19067838     -0.88679168
H      -0.48269652      0.65267918     -1.22253766
H      -1.97891747     -1.37649502     -0.73263056
H      -1.69379096     -1.11709231      0.99183095
H      -3.78368234     -0.10173922     -0.03559245
H      -2.85956678      0.99325011      0.73585352
