14
b3lypvtz=-216337.0599397
O       1.36887711      1.21772901     -0.50866401
C       1.29359011     -0.21755780     -0.40928385
C      -0.08213608     -0.66148330     -0.87805087
C      -1.22838279     -0.14502264     -0.00877919
O      -0.97952076     -0.59352000      1.31753650
O      -1.38463854      1.24844700     -0.06237214
H       2.16075078      1.52054794     -0.05592316
H       1.44997694     -0.53225156      0.62423079
H       2.06458623     -0.67396380     -1.03771912
H      -0.10860562     -1.75304919     -0.87762247
H      -0.25082516     -0.32539942     -1.90261920
H      -2.17890459     -0.55687635     -0.36271724
H      -1.62901710     -0.16370681      1.88389893
H      -0.49565052      1.63600691     -0.07171498
