15
b3lypvtz=-157224.75553975697
C       1.72280446     -0.13110126      0.61818707
C       0.75572417     -0.56675154     -0.48839392
C      -0.59766841      0.11653499     -0.42913122
C      -0.83210174      1.34917036     -1.15890446
N      -1.29059881      0.37524328     -1.79499120
C      -1.50720001     -0.29089747      0.70823590
H       1.90393436      0.94532152      0.58298402
H       1.33740737     -0.37046926      1.61037454
H       2.68519029     -0.63364114      0.51107354
H       1.20289592     -0.36539599     -1.46334512
H       0.60447020     -1.64997497     -0.43270165
H      -0.76171089      2.42468550     -1.27115465
H      -1.08229000     -0.01835360      1.67715182
H      -1.65986363     -1.37352841      0.70852475
H      -2.48099329      0.18915801      0.62209058
