11
b3lypvtz=-179039.43707762
C      -2.33207046     -0.35191293      0.00000052
C      -0.88810170     -0.72736757     -0.00000039
C       0.12592980      0.14288945      0.00000027
O      -0.08050183      1.50084749     -0.00000104
C       1.49014393     -0.28835177     -0.00000005
N       2.60598849     -0.58167296      0.00000117
H      -2.83706024     -0.76566323     -0.87688482
H      -2.83706052     -0.76566948      0.87688274
H      -2.46908668      0.72679066      0.00000415
H      -0.62730272     -1.77684392     -0.00000245
H       0.76413193      1.96192126      0.00001791
