16
b3lypvtz=-168074.75386232
C      -2.40984022     -0.49830503      0.42952125
N      -1.42868381     -0.22367434     -0.61187782
C      -0.54115683      0.90104663     -0.33191632
C       0.63389422      0.50598876      0.57867251
C       1.57951271     -0.46742533     -0.07143459
N       2.84299022     -0.39167158     -0.14033419
H      -3.01686359      0.37759977      0.70795162
H      -3.08109384     -1.28942363      0.09585695
H      -1.91459812     -0.85637508      1.33344471
H      -1.89995059     -0.07534900     -1.49318124
H      -0.14388610      1.26337365     -1.28228910
H      -1.07522600      1.74499549      0.13330069
H       0.23574138      0.05113914      1.49191334
H       1.18024716      1.40219551      0.88467462
H       1.10213110     -1.33040529     -0.53819897
H       3.18088229      0.45479530      0.32615355
