15
b3lypvtz=-157236.0088052
C       2.43679327     -0.00069772     -0.01887107
C       1.11593142     -0.00421034     -0.09055604
C       0.06261597     -1.09534660     -0.06380821
C      -0.95991010     -0.00249593      0.41070479
N      -2.29787054      0.10041786     -0.13241579
C       0.05745548      1.08183047     -0.03748061
H       2.99867070      0.92440812      0.02486646
H       3.00532470     -0.92246407      0.00041017
H      -0.18750113     -1.44994954     -1.06873014
H       0.23612234     -1.95882954      0.57961252
H      -1.03654434     -0.01726077      1.49862027
H      -2.28319871      0.04326851     -1.14470216
H      -2.89000739     -0.65076243      0.20177395
H      -0.19320251      1.45787223     -1.03439943
H       0.22194883      1.93424876      0.62107429
