9
b3lypvtz=-199172.11304247
C      -0.36709931      0.81453771     -0.16628798
C       0.72979714     -0.00665159     -0.07030326
N       0.32228297     -1.29063952      0.03932823
N      -0.98442219     -1.32545794      0.01788803
N      -1.40173946     -0.06601824     -0.10534014
O       2.03054962      0.34304613     -0.07760955
H      -0.48554363      1.87646500     -0.26573050
H      -2.38919265      0.12426166     -0.14147837
H       2.54536752     -0.46954321      0.00666999
