10
b3lypvtz=-186663.21816219873
C       0.05756522     -0.08504275      0.07308729
N      -1.08980535      0.21760715      0.55520533
N      -1.99196628     -0.75840066      0.75201673
C       1.04934062      0.93918818     -0.15052083
N       2.21660816      0.64699287     -0.63754012
N       3.23676433      0.38409254     -1.06428133
H       0.33020507     -1.11302533     -0.18508546
H      -1.80099918     -1.72475002      0.53425052
H      -2.87575823     -0.48522099      1.12942941
H       0.86804565      1.97855903      0.07379794
