12
b3lypvtz=-166475.33107749
N       0.92586953      1.31842787     -0.11540206
C      -0.24851989      0.72091376      0.59676305
C      -0.73898792     -0.15241915     -0.61212551
N      -0.68707615     -1.46039502      0.11572313
C       0.44817750     -0.67243284      0.69603052
C       0.81792601     -0.06474794     -0.68251597
H       0.61812225      2.01116344     -0.79936327
H      -0.83319201      1.24797006      1.35041825
H      -1.47246828      0.08407879     -1.38260584
H      -1.45411054     -1.53042520      0.78589414
H       1.11988164     -1.04094565      1.46752670
H       1.48627786     -0.47278812     -1.43684313
