10
b3lypvtz=-191477.55404109
O       3.30834340     -0.81298015     -0.50603625
C       2.50739844      0.08307059     -0.37770007
C       1.07861588     -0.10020607     -0.37966808
C      -0.12225941     -0.21088106     -0.38355912
C      -1.57352125     -0.36350885     -0.36680964
O      -2.28501454      0.85824146     -0.24127864
H       2.83153201      1.13148492     -0.24719011
H      -1.84135978     -1.07304228      0.42617048
H      -1.89699374     -0.80702244     -1.31048710
H      -2.00674100      1.29474388      0.57045853
