14
b3lypvtz=-169731.41714519
C       2.31860082     -0.48476434      0.00000922
C       1.22858872      0.54048987      0.00001571
C      -0.10495779      0.37499971      0.00000078
C      -1.05845243      1.53794778      0.00000470
C      -0.72635252     -0.96242881     -0.00001000
O      -1.92595271     -1.14220774     -0.00000426
H       2.96047298     -0.34564764     -0.87450777
H       2.96046684     -0.34566734      0.87453372
H       1.96789598     -1.51271773     -0.00000441
H       1.59077641      1.56570971      0.00003513
H      -0.52325464      2.48650821      0.00001125
H      -1.71282563      1.50229358     -0.87262830
H      -1.71283066      1.50228370      0.87263359
H      -0.04200437     -1.82865296      0.00001663
