12
b3lypvtz=-168928.59171505
C      -3.15546471     -0.40811857      0.00004092
C      -2.04146637      0.04885317     -0.00001572
C      -0.75078340      0.62652774     -0.00009682
C       0.37114512     -0.10579778      0.00011998
O       1.59144135      0.46832384      0.00014076
C       2.69980379     -0.42694556     -0.00018958
H      -4.13429346     -0.81707109      0.00008952
H      -0.67200109      1.70772319     -0.00032820
H       0.34479618     -1.19110628      0.00034246
H       3.59483294      0.18916895      0.00022412
H       2.69487094     -1.05782965      0.89227198
H       2.69506570     -1.05691995     -0.89329341
