14
b3lypvtz=-169699.76274353
C      -2.71153747     -0.04247625     -0.15734837
C      -1.46540571      0.31448282      0.12403377
O      -0.41117256     -0.53870808     -0.02103262
C       0.81126461     -0.09281160      0.51283637
C       2.03767945     -0.58992572     -0.16668750
C       1.64647213      0.86751018     -0.28381549
H      -2.95034406     -1.03837153     -0.50301674
H      -3.51051026      0.67467069     -0.04979750
H      -1.20825046      1.31051251      0.47045464
H       0.81054873     -0.00994507      1.59454398
H       2.88915026     -0.85819746      0.44240510
H       1.88270421     -1.21217341     -1.03652319
H       2.22672322      1.60978963      0.24671419
H       1.24477991      1.19297829     -1.23306464
