8
b3lypvtz=-211562.65237568
C      -0.66430784     -0.64550405      0.28492125
C      -0.67627027      0.62504344     -0.05399782
O       0.49348276      1.34987388     -0.21644451
N       1.70596073      0.61129161      0.01144346
N       1.71698614     -0.55910779      0.32357074
O       0.51876759     -1.33424187      0.49957988
H      -1.53564589     -1.26281548      0.42646161
H      -1.55897323      1.21546026     -0.23445933
