11
b3lypvtz=-199924.1666246
C       1.92374435      0.65457086     -0.09181120
N       1.47975379     -0.42807861      0.40933229
N       0.15985801     -0.77587546      0.42112909
C      -1.00712284     -0.17155288     -0.01910092
N      -2.18437118     -0.63815451      0.08091996
O      -0.80867522      1.02913339     -0.60415701
H       1.32846941      1.42514062     -0.56260693
H       2.99685624      0.78450544     -0.02313706
H       0.02673286     -1.66693311      0.86475627
H      -2.22306022     -1.54393031      0.53530689
H      -1.69218520      1.33117459     -0.85836225
