14
b3lypvtz=-193005.15410584
C       2.48333661      0.41614500      0.00000486
O       1.68489073     -0.75179502      0.00000753
C       0.32841259     -0.58214859      0.00000458
C      -0.32841259      0.58214888     -0.00000496
O      -1.68489073      0.75179530     -0.00000792
C      -2.48333660     -0.41614471     -0.00000531
H       2.29792216      1.02519439     -0.89111586
H       3.51793874      0.08205853      0.00001011
H       2.29791563      1.02520253      0.89111865
H      -0.16999450     -1.53906315      0.00001057
H       0.16999449      1.53906344     -0.00001095
H      -2.29792219     -1.02519413      0.89111540
H      -2.29791560     -1.02520222     -0.89111911
H      -3.51793873     -0.08205825     -0.00001059
