12
b3lypvtz=-189861.19310011
C      -2.03884741     -0.75583876     -0.00040239
N      -1.47689099      0.38082789      0.00020276
C      -0.06325169      0.46437208     -0.00006788
N       0.55731200      1.56847050      0.00023027
O       0.57866206     -0.71930628     -0.00072987
C       2.01040231     -0.66834624     -0.00087021
H      -3.12533752     -0.78933974     -0.00011996
H      -1.49728794     -1.70133955     -0.00117475
H      -0.12084020      2.32499646      0.00069732
H       2.37366258     -0.14707828     -0.88556220
H       2.34003049     -1.70394770     -0.00196480
H       2.37385430     -0.14889840      0.88482470
