16
b3lypvtz=-168074.15681215
C      -0.59780785      1.67869217      0.11580987
C      -0.00336057      0.49659548     -0.08429853
C      -0.77551196     -0.80029303     -0.17932725
N      -2.20913707     -0.62912429      0.04271595
N       1.37419192      0.37877663     -0.29829624
C       2.14557925     -0.74140841      0.22258589
H      -0.01838902      2.58983315      0.19769626
H      -1.67197614      1.75829974      0.13227808
H      -0.63270178     -1.20867992     -1.18491035
H      -0.31993923     -1.52526293      0.50984801
H      -2.38407389     -0.35582901      1.00280654
H      -2.68788291     -1.50832529     -0.10647636
H       1.84641500      1.26109061     -0.17318243
H       1.85608107     -1.67500695     -0.25906617
H       2.05813521     -0.87549369      1.30964056
H       3.19557697     -0.57219926     -0.01323883
