10
b3lypvtz=-238108.66929002
O      -1.52194601     -0.19556224     -1.24004663
C      -0.76233758     -0.38086655     -0.13827356
O      -1.35584730     -1.24194098      0.71703677
C       0.41575574      0.20766730      0.07582043
O       1.17486604     -0.09804576      1.18944535
O       0.91708576      1.14333798     -0.80922764
H      -1.09522044      0.49064379     -1.76825780
H      -0.73291500     -1.40453917      1.43638591
H       1.23892518      0.68445267      1.75361407
H       1.72173358      0.79495298     -1.21649691
