10
b3lypvtz=-165796.8103419
C       0.18385429      1.61550428      0.05987798
C      -0.06557995      0.30202969      0.05295206
C      -1.41116276     -0.18241957     -0.03870155
N      -2.47790268     -0.61288563     -0.11002102
C       0.99547578     -0.74407742      0.18061290
N       2.21242916     -0.64531689     -0.14996039
H      -0.60843251      2.34367695     -0.03183447
H       1.19389571      1.98596088      0.17362356
H       0.65723871     -1.68995439      0.60362649
H       2.42140725      0.26202609     -0.57222655
