11
b3lypvtz=-202333.65996356
N      -1.75943823     -0.30647245     -0.89489542
C      -1.55305985      0.52620381      0.02550512
O      -0.49084610      0.67543662      0.86729775
C       0.59164277     -0.23654460      0.73516937
C       1.46208023      0.05896797     -0.47702426
O       2.25013176     -0.72895842     -0.92368785
H      -1.01123528     -0.98108593     -1.03701902
H      -2.28989563      1.28817811      0.26154150
H       0.25991444     -1.27718597      0.71474006
H       1.20359494     -0.09536009      1.62790623
H       1.33721096      1.07682096     -0.89933347
