17
b3lypvtz=-158010.06192823
C      -1.50503060     -1.12209626      0.29860575
C      -1.07179490      0.09311766     -0.53536228
C       0.06141014      0.89296148      0.06891264
C      -0.18303778      1.93994701      0.87141900
N       1.35800623      0.53811009     -0.30336019
C       1.77102841     -0.83849827     -0.52085194
H      -2.34307323     -1.63385674     -0.17825651
H      -0.69990485     -1.84705784      0.42097296
H      -1.82090834     -0.80812854      1.29373567
H      -0.80011495     -0.22536384     -1.54462575
H      -1.92595161      0.76188970     -0.64425034
H      -1.19276146      2.27884979      1.04675502
H       0.61639776      2.49922201      1.34144376
H       2.05669501      1.08325177      0.17904579
H       1.75473735     -1.45805161      0.38606505
H       1.13671897     -1.31550526     -1.26656602
H       2.78758383     -0.83879115     -0.91368262
