16
b3lypvtz=-168073.67753297
C       3.03208992     -0.23900758      0.04108145
N       1.74007398      0.34167559      0.34916724
C       0.74663410     -0.00176030     -0.34891179
C      -0.62722798      0.55692279     -0.11665182
N      -1.60369762     -0.52080825      0.00489614
C      -2.98088068     -0.05179773      0.08709377
H       3.42292115     -0.73523474      0.93177195
H       3.00635749     -0.95937848     -0.78755638
H       3.73317321      0.56062751     -0.20732554
H       0.82431619     -0.73797018     -1.16222182
H      -0.90789862      1.15422447     -0.99246834
H      -0.59363695      1.23812818      0.74451215
H      -1.38409305     -1.08003043      0.82047773
H      -3.16339161      0.66935746      0.89860386
H      -3.25687566      0.43124532     -0.85265123
H      -3.64788187     -0.90235363      0.22948464
