13
b3lypvtz=-177351.06565945
N       2.60100981     -0.10353837     -0.12201174
N       1.47351286      0.40188640      0.06386251
N       0.46814268     -0.47489051     -0.05907543
C      -0.79568017     -0.14462499      0.52167307
C      -1.63491792      0.90043176     -0.15339387
C      -2.02786841     -0.54788727     -0.24030781
H       3.26646423      0.66780826     -0.04623120
H       0.75736772     -1.44988787     -0.09423083
H      -0.84746748     -0.19281934      1.60512474
H      -1.21643592      1.36367071     -1.03436708
H      -2.21510240      1.55857558      0.47713386
H      -2.88016664     -0.89186914      0.32780770
H      -1.87695736     -1.05027323     -1.18526691
