15
b3lypvtz=-180573.50586771
C       2.23510534     -0.27957528      0.51595619
C       1.17925537     -0.38674308     -0.58432003
N      -0.13459016      0.10554972     -0.19758643
C      -0.32712744      1.53604294     -0.03126051
C      -1.18385699     -0.74343109     -0.02667699
O      -2.31275907     -0.42671279      0.29080385
H       2.40389129      0.75518000      0.81497553
H       3.18632123     -0.68008054      0.16160438
H       1.93357845     -0.84411172      1.39910682
H       1.06442073     -1.43009657     -0.88214217
H       1.51137497      0.16078309     -1.47231535
H       0.25518042      1.92457176      0.80665778
H      -0.02748236      2.06739919     -0.93834361
H      -1.38156771      1.71330164      0.16087826
H      -0.89799006     -1.79349326     -0.21504172
