9
b3lypvtz=-227452.7768666
O       2.10645187      0.58591937     -0.85117043
N       1.62216797     -0.33331208      0.06519386
C       0.34791840     -0.40805947      0.09718807
N      -0.50367458      0.35069946     -0.70225859
C      -1.74465312      0.23307091     -0.62568657
F      -2.39509534     -0.61097685      0.20854869
H       3.05926631      0.50581908     -0.73703656
H      -0.04664234     -1.12320824      0.80947324
H      -2.44593918      0.80004782     -1.22535172
