13
b3lypvtz=-177333.855321068
C      -0.28112952     -1.30142874      0.18844753
C       0.99875868     -0.87941036     -0.18560783
N       1.30702852      0.43829653     -0.31462639
N       2.50444949      0.72041732     -0.66124959
C      -1.38923212     -0.55647154      0.47729794
N      -1.23658089      0.90846506      0.38828647
H      -2.09740231      1.40094707      0.61555302
H      -0.89210045      1.18259257     -0.54230085
H      -0.46148207      1.23048344      0.98442718
H      -0.42265738     -2.37390782      0.26217496
H       1.77816720     -1.60967627     -0.38190544
H       2.55613523      1.74230751     -0.70860669
H      -2.36395439     -0.90261475      0.76284842
