16
b3lypvtz=-147169.48034541
C       2.27701025     -0.00000007     -0.47146331
C       1.06103104     -0.00000005      0.04933846
C       0.06604644     -1.09251872      0.40031067
C      -1.04920735     -0.00000003      0.47412007
C      -2.01194398     -0.00000002     -0.70313588
C       0.06604646      1.09251863      0.40031067
H       2.79720186      0.92369279     -0.69477197
H       2.79720183     -0.92369294     -0.69477197
H      -0.07499573     -1.88341149     -0.33857807
H       0.27090125     -1.55830754      1.36691598
H      -1.60687229     -0.00000003      1.41088913
H      -1.47014514     -0.00000003     -1.65244390
H      -2.65515758     -0.88265117     -0.68753288
H      -2.65515756      0.88265114     -0.68753289
H       0.27090129      1.55830745      1.36691598
H      -0.07499569      1.88341141     -0.33857807
