14
b3lypvtz=-146386.38454732
C       2.40755900     -0.18168444      0.00002378
C       1.21416352     -0.04329916      0.00007773
C      -0.21354241      0.14963499     -0.00008006
C      -0.66581874      1.60036632     -0.00011138
C      -1.05482722     -0.86879922     -0.74965339
C      -1.05504953     -0.86863779      0.74944747
H       3.46085547     -0.30952836      0.00023355
H      -0.29463352      2.12291042     -0.88300276
H      -0.29499435      2.12272687      0.88304933
H      -1.75490774      1.66102375     -0.00033756
H      -1.92814042     -0.49265686     -1.26509147
H      -0.53603271     -1.66733036     -1.25930195
H      -1.92851250     -0.49232041      1.26450543
H      -0.53644986     -1.66706176      1.25945829
