12
b3lypvtz=-189856.17562221
C       1.41956345     -0.33373738      0.04772618
C      -0.06016829     -0.38448536     -0.37707369
C      -0.00737281      1.12622686     -0.08576386
N      -0.75061636      2.13012373      0.00117599
O       1.34474860      1.12228164      0.16457354
N      -0.94054414     -1.26723612      0.34935705
H       1.62403922     -0.79192753      1.01513288
H       2.16459727     -0.63362603     -0.68680437
H      -0.17250505     -0.57479925     -1.44445514
H      -1.71205772      1.89244517     -0.23007366
H      -1.86095296     -1.30623377     -0.06816398
H      -1.04873122     -0.97903196      1.31436904
