11
b3lypvtz=-202353.80806912
C      -1.04470326     -1.33316667     -0.26493685
C      -0.83594758      0.13629720     -0.07059689
N      -1.55389275      0.99607688      0.48784127
O       0.32850137      0.62846464     -0.70403319
C       1.53344941      0.31986607     -0.18010484
O       1.73205680     -0.34156018      0.79666294
H      -1.00549519     -1.57708454     -1.32811208
H      -2.00744881     -1.64070072      0.13777254
H      -0.25214701     -1.88893635      0.23612601
H      -2.39949298      0.57222370      0.86277317
H       2.31030301      0.78299396     -0.80003208
