15
b3lypvtz=-180510.49740925396
C      -2.42466608     -0.65427607     -0.30968537
O      -1.02518710     -0.49496847     -0.21257453
C      -0.59487883      0.84847825     -0.36829846
C       0.89369477      0.89523891     -0.24794690
N       1.57179541     -0.22403875     -0.03207555
C       2.86636069     -0.50692017      0.11784737
H      -2.64196226     -1.71230356     -0.17616540
H      -2.79547824     -0.33411770     -1.29041662
H      -2.94600739     -0.08148867      0.46613398
H      -1.08293002      1.47964506      0.39425882
H      -0.93468947      1.23008640     -1.34662355
H       1.42895887      1.82712627     -0.33381625
H       0.94954557     -1.02615524      0.02856231
H       3.59381169      0.28473366      0.06749495
H       3.14163241     -1.53103994      0.28619775
