11
b3lypvtz=-155695.72950365
C       2.51196969     -0.52874388     -0.09914736
C       1.38821518     -0.10853800     -0.02574934
C       0.03153449      0.32378663      0.06260634
C      -0.30434929      1.62055937      0.05736047
C      -0.98908548     -0.76180627      0.20103763
N      -2.19950600     -0.73778177     -0.16999862
H       3.50961785     -0.88553362     -0.16586362
H       0.44077463      2.39607130     -0.04233863
H      -1.33532199      1.92842739      0.17031334
H      -0.62100365     -1.67471554      0.67042940
H      -2.43022042      0.14477539     -0.63217462
