12
b3lypvtz=-215591.54657506
C       2.33800953     -0.01158702      0.00002635
O       1.08169531     -0.70744987     -0.00004858
C      -0.00000001      0.07927772     -0.00010536
O      -0.00000002      1.28446927     -0.00001861
O      -1.08169532     -0.70744989     -0.00004770
C      -2.33800953     -0.01158702      0.00002758
H       3.09747124     -0.78764284      0.00010162
H       2.43031679      0.61254983     -0.88734395
H       2.43017690      0.61259291      0.88738157
H      -3.09747126     -0.78764282      0.00010931
H      -2.43031957      0.61254498     -0.88734588
H      -2.43017408      0.61259775      0.88737964
