13
b3lypvtz=-177351.4329972238
C      -0.59258458     -0.76194258     -0.16745519
N      -1.98894195     -0.33968285      0.00915312
H      -2.65582295     -1.09695185     -0.10146144
H      -2.19895346      0.43604551     -0.63745541
H      -2.09714393      0.11799333      0.92719190
C       0.24355914      0.32328971     -0.00071389
N      -0.29122952      1.50747744      0.27539864
C       1.71524395      0.14612298     -0.13281690
N       2.26482864     -0.96617797     -0.39618073
H      -0.38656480     -1.78803981     -0.38979933
H       0.42765128      2.21758477      0.37339293
H       2.28165918      1.07439854      0.02013166
H       3.27829898     -0.87011722     -0.44272160
