13
b3lypvtz=-179767.19312896
C       2.30778720     -0.58540044      0.13402408
C       1.44390407      0.38319717     -0.16156226
C      -0.02289167      0.28560124     -0.06876901
C      -0.83323191      1.53993922      0.10467320
N      -0.54115312     -0.88331219     -0.14062923
O      -1.93784635     -0.84163634      0.01219076
H       3.37310151     -0.43232856      0.02847068
H       1.97138026     -1.55132531      0.48547654
H       1.81934046      1.34955316     -0.48139254
H      -1.64006809      1.58110397     -0.62757324
H      -1.30408979      1.55256547      1.08984273
H      -0.20990468      2.42635724      0.00714796
H      -2.18448989     -1.76386263     -0.10842568
