18
b3lypvtz=-171246.18019843
C       2.04249898     -0.00000338     -0.14207812
O       0.79158942     -0.00000028     -0.79773856
C      -0.40208649      0.00000168      0.01190246
C      -1.52997894      0.00001743     -1.01917031
C      -0.47753553     -1.26323803      0.87814069
C      -0.47751926      1.26322813      0.87816130
H       2.79782817     -0.00001240     -0.92681851
H       2.19393440      0.88925090      0.47878111
H       2.19392478     -0.88925163      0.47879213
H      -1.45816043      0.88288934     -1.65468803
H      -2.50457565      0.00001784     -0.52971155
H      -1.45816971     -0.88284318     -1.65470477
H      -0.36036881     -2.15361480      0.25901206
H       0.29192172     -1.27609348      1.65077205
H      -1.44454912     -1.31962130      1.38007773
H      -0.36033794      2.15361362      0.25904789
H      -1.44453353      1.31961711      1.38009633
H       0.29193594      1.27605945      1.65079509
