15
b3lypvtz=-180561.45980051
C      -2.63835554     -0.19106834      0.12601406
N      -1.34219045      0.26822793     -0.34000665
C      -0.23993480     -0.59009053      0.00977371
C       1.08326429      0.15642191      0.01606574
C       2.33508746     -0.68903828     -0.00519516
O       1.12131345      1.36547020      0.05230378
H      -2.91164425     -1.12022815     -0.38014445
H      -3.39777341      0.55058405     -0.12133458
H      -2.68233235     -0.38110428      1.21107849
H      -1.13536515      1.20875392     -0.02703504
H      -0.32818290     -1.03335785      1.02263233
H      -0.16931808     -1.44425198     -0.67420247
H       2.22729423     -1.57975298      0.61615358
H       2.51440593     -1.02911494     -1.02886417
H       3.18845755     -0.10038268      0.32274383
