14
b3lypvtz=-169672.51906832
C      -1.84055096     -0.23406766     -0.18800786
C      -0.46014716      0.38471506     -0.16520709
C       0.75126534     -0.41535107     -0.71957062
C       1.70625010      0.47074480      0.10658423
C       0.51833773      0.04119853      0.99210085
O       0.65514449     -1.33565836      0.44540631
H      -2.50945348      0.28664194      0.50064147
H      -1.79832843     -1.28369678      0.09771610
H      -2.28007780     -0.16309414     -1.18530242
H      -0.47205132      1.43959473     -0.44809273
H       0.89568255     -0.86482777     -1.69993774
H       2.65790142      0.01040182      0.35895853
H       1.79300740      1.52345651     -0.16252608
H       0.38302013      0.13994240      2.06723703
