12
b3lypvtz=-166498.99988771
C       0.67380591      0.34573802     -0.74414036
C       0.54252144      0.54588166      0.73142715
N       1.66162600     -0.25723613      0.18273244
C      -0.67380601     -0.34573790      0.74414037
C      -0.54252146     -0.54588155     -0.73142716
N      -1.66162612      0.25723614     -0.18273225
H       0.96635613      1.06633281     -1.49345382
H       0.71760837      1.44557815      1.30255719
H       2.48822759      0.33822399      0.17551025
H      -0.96635567     -1.06633316      1.49345362
H      -0.71760855     -1.44557796     -1.30255725
H      -2.48822766     -0.33822405     -0.17551016
