13
b3lypvtz=-200680.10044922
N      -2.26475649      0.06252623     -0.41207477
C      -1.24252469     -0.63513406      0.38018844
C       0.11287023     -0.01780866      0.15146721
N       0.18191200      1.34701855      0.21210395
N       1.10105361     -0.81747280     -0.02201518
O       2.30636606     -0.06296603     -0.17943776
H      -3.19169826     -0.17022792     -0.08021600
H      -2.21627068     -0.22177034     -1.38362060
H      -1.15843766     -1.70717853      0.18642166
H      -1.50245038     -0.50623519      1.43412229
H      -0.67866703      1.81195708     -0.03338950
H       1.03167164      1.75630106     -0.14010412
H       2.95467164     -0.75372539     -0.33792261
