10
b3lypvtz=-189108.69209117
N       2.63807166     -0.49290639     -0.00018130
C       1.55349019     -0.10625972      0.00001299
C       0.14157887      0.33638788      0.00005478
O      -0.13094189      1.50847084      0.00007769
C      -0.88017932     -0.79281932      0.00002021
N      -2.26452388     -0.38915055     -0.00001020
H      -0.66643875     -1.42503055      0.86888344
H      -0.66639711     -1.42502079     -0.86883875
H      -2.47192991      0.18137147      0.81105468
H      -2.47189686      0.18136012     -0.81109153
