16
b3lypvtz=-147159.61946074
C      -1.83727201     -0.00000039      0.16334834
C      -0.77243751      1.09422574     -0.13293986
C       0.30071817     -0.00000016     -0.07574849
C      -0.77243684     -1.09422693     -0.13293594
C       1.67118869     -0.00000089     -0.67107259
C       1.49335960      0.00000186      0.83085345
H      -2.72541538     -0.00000180     -0.46639542
H      -2.15097792      0.00000139      1.20641889
H      -0.88148153      1.52419338     -1.13043950
H      -0.68633685      1.90655671      0.58936483
H      -0.68633569     -1.90655530      0.58937163
H      -0.88148058     -1.52419816     -1.13043406
H       2.02481098     -0.90962125     -1.13978890
H       2.02481060      0.90961786     -1.13979231
H       1.72707941     -0.90998011      1.36883421
H       1.72707886      0.90998603      1.36883072
