12
b3lypvtz=-166572.34163252
N       2.08520038     -0.12297255     -0.00001276
C       0.81827098     -0.01162185      0.00000634
C      -0.10599214      1.21241118      0.00001248
C      -1.49024380      0.60994182     -0.00001385
C      -1.36769053     -0.71940225     -0.00000937
N      -0.02784131     -1.10756895      0.00002308
H       2.52974710      0.79040783     -0.00002301
H       0.09194947      1.83292116      0.87813777
H       0.09197520      1.83295310     -0.87808374
H      -2.41345678      1.16332032     -0.00002168
H      -2.14087082     -1.47131126     -0.00001873
H       0.31564425     -2.05106653     -0.00003552
