14
b3lypvtz=-190629.66667244
N      -1.43676528      0.99010216      1.35359531
C      -0.64023200      0.38777201      0.38044876
N      -1.13436785      0.58545874     -0.90072053
C       0.48460486     -0.31318751      0.64663310
C       1.16308045     -1.16328976     -0.37952720
O       1.59635330     -0.44298782     -1.55954619
H      -1.06968889      0.91584197      2.28920386
H      -1.71618945      1.93464990      1.12726979
H      -0.57051473      0.18274953     -1.63475301
H      -2.12859044      0.45056642     -1.00497630
H       0.90230013     -0.26999027      1.64363133
H       0.49443519     -1.93038683     -0.78180773
H       2.01451993     -1.68143109      0.07108717
H       2.04125479      0.35413255     -1.25063835
