15
b3lypvtz=-157234.30223044
C       2.37329169      0.28836746      0.01677652
C       1.17407162     -0.60558078     -0.30073764
C      -0.08279914     -0.20603400      0.46501015
C      -1.39364871     -0.84955686      0.09258746
N      -2.05446724      0.18281363     -0.28222080
C      -0.87278795      1.06011978     -0.00090925
H       2.63173004      0.23890873      1.07670131
H       3.25259067     -0.01286828     -0.55421478
H       2.16460464      1.33271251     -0.22428715
H       0.96362321     -0.57728250     -1.37400667
H       1.42014578     -1.64504386     -0.06378158
H       0.11484375     -0.21680808      1.54126876
H      -1.75929607     -1.87536250      0.10781462
H      -1.08038053      1.81671770      0.75647642
H      -0.49328476      1.54455007     -0.90169735
