12
b3lypvtz=-194864.4496042
C       3.01073327     -0.19210647     -0.00004446
C       1.64200544      0.39968461     -0.00006565
N       0.59139739     -0.31734612     -0.00002019
C      -0.64834107      0.31276974      0.00001095
C      -1.75520407     -0.42330818      0.00003942
F      -2.97258544      0.14321561      0.00002627
H       2.95635715     -1.27866657     -0.00005722
H       3.57345135      0.14167842      0.87662035
H       3.57350051      0.14170043     -0.87666812
H       1.57893389      1.49682324     -0.00004573
H      -0.71819123      1.40086801     -0.00000766
H      -1.77757018     -1.50365772      0.00000701
