12
b3lypvtz=-189842.23886897
C      -0.22815963     -0.47411562      0.16206062
C      -1.30847223      0.21298019     -0.25258702
N      -2.62045595     -0.18675376     -0.13821798
C       1.10171090      0.06497548      0.06841472
N       2.11823459     -0.60229203      0.46459418
O       3.30596006      0.13615086      0.26278089
H      -0.33259098     -1.46612292      0.58700291
H      -1.18524163      1.20360622     -0.67625499
H      -2.78948716     -1.16104533      0.05427274
H      -3.28094756      0.21925255     -0.77836149
H       1.23897976      1.06263473     -0.35165002
H       3.98046980     -0.46198901      0.59794545
