14
b3lypvtz=-169652.59637043305
C       2.28865219     -1.41846685      0.05930676
O       1.92852603     -0.28945617     -0.46254553
C       0.95380666      0.50263947      0.29027456
C      -0.34780271      0.55058984     -0.44556669
C      -1.31094262     -0.59942382     -0.32363584
C      -1.62061747      0.70926196      0.34787557
H       2.99906775     -1.82111038     -0.70100696
H       1.40342447      1.49144343      0.38405117
H       0.85760834      0.03625600      1.27061906
H      -0.31090359      1.05564565     -1.40249912
H      -1.01570704     -1.43223725      0.29959665
H      -1.88287491     -0.87350987     -1.19862867
H      -2.39883439      1.33258935     -0.06870368
H      -1.54340272      0.75577862      1.42573192
