12
b3lypvtz=-166571.99881781
C      -1.01828297      1.38302726      0.15005822
C      -0.92040116     -0.11352260      0.02751394
N      -1.79753420     -0.89414972     -0.44547150
C       0.35504226     -0.76402547      0.56145064
C       1.57693088     -0.19244968      0.00357148
N       2.52982327      0.27224937     -0.44307605
H      -0.91789714      1.68990679      1.19433143
H      -1.97178531      1.74454628     -0.23117122
H      -0.20992465      1.86884943     -0.39983675
H      -2.62396959     -0.37738775     -0.74864981
H       0.31289047     -1.82951737      0.34070344
H       0.39233815     -0.64693956      1.64908417
