15
b3lypvtz=-180554.91373463
C      -2.07364654     -0.23375572      0.19416257
N      -0.83212362     -0.69737698     -0.42274247
C       0.36316237     -0.43267325      0.35416700
C       1.54701244     -1.27301870     -0.15225088
C       0.79827774      1.02882451      0.37606094
O       0.36564471      1.87589691     -0.36239001
H      -2.24597779     -0.78839921      1.11908751
H      -2.90498611     -0.45094207     -0.47644210
H      -2.09427799      0.83840300      0.42622238
H      -0.73027868     -0.26594708     -1.33463823
H       0.16716604     -0.71847170      1.39472393
H       2.45496615     -1.08011000      0.42189190
H       1.29975527     -2.33007741     -0.07489715
H       1.75286580     -1.04459803     -1.19968323
H       1.59324421      1.27433972      1.11434083
