12
b3lypvtz=-192224.23284142
O       0.22677798      1.70390750     -0.75879317
C       0.10951449      0.46777846     -0.14763064
C       1.27842166     -0.47051547      0.12724349
O       0.45943274     -1.62543187     -0.23043706
C      -0.62283730     -0.76159503     -0.59628580
C      -1.11466348      0.00349829      0.60298098
H       0.15062573      2.39112029     -0.08819349
H       2.09118800     -0.34329283     -0.58999868
H       1.66816189     -0.53454165      1.14573757
H      -1.20931070     -1.00196949     -1.47112857
H      -1.04345653     -0.43662229      1.59133762
H      -1.99375448      0.60766408      0.41526775
