12
b3lypvtz=-189889.99963159
C       2.05897562     -0.86987712      0.00001240
C       0.93038917      0.13852983     -0.00003835
N       1.06146401      1.40175132     -0.00006661
N      -0.34686639     -0.42731292     -0.00002732
C      -1.54049470      0.26776296     -0.00001323
O      -2.61379079     -0.28780940      0.00005821
H       2.68352386     -0.72256605     -0.88128093
H       2.68324914     -0.72278504      0.88153895
H       1.70885437     -1.90167416     -0.00016717
H       2.04238056      1.66519111     -0.00006203
H      -0.43643077     -1.43162035     -0.00002889
H      -1.39894708      1.35424482      0.00008997
