10
b3lypvtz=-212353.94336593
C      -1.41253682      0.78905383     -0.35837127
C      -0.40650511     -0.04355375     -0.12017117
O       0.88848560      0.34672717     -0.41857620
N       1.79611943     -0.66097139     -0.09559251
N       2.92868648     -0.28788249     -0.36967358
O      -2.73236360      0.53677368     -0.11472203
H      -1.25522058      1.77082043     -0.78107113
H      -0.50483111     -1.03515300      0.30064839
H       3.53400941     -1.07118986     -0.10804317
H      -2.83584370     -0.34462462      0.26094808
