11
b3lypvtz=-202324.85753049
C      -1.54703427     -0.45726534      0.06835415
O      -1.43645720      0.94351268     -0.17740623
C      -0.08350682      1.19473217      0.00277081
C       0.61516675      0.06545917     -0.02075622
O      -0.26409009     -1.01975734     -0.18357045
N       1.98309289     -0.16466053      0.01545471
H      -1.81653547     -0.62183905      1.12263986
H      -2.28560920     -0.89155926     -0.60223304
H       0.23343883      2.21747529      0.08210164
H       2.21963554     -0.95860112      0.59749619
H       2.38189902     -0.30749668     -0.90485141
