13
b3lypvtz=-156491.28727594
C       2.11983322      0.00278434     -0.05958844
C       0.78799696      0.01103297      0.02948101
C      -0.14521397      1.21856101      0.05088202
C      -1.51627109      0.59029232     -0.06655112
C      -1.37900341     -0.73569854     -0.03674150
N      -0.04035554     -1.11640442      0.11391944
H       2.68634183     -0.91869283     -0.06207877
H       2.67165018      0.92811010     -0.12579119
H      -0.03299060      1.77510012      0.98708652
H       0.08476464      1.91617795     -0.75722808
H      -2.44573595      1.13227407     -0.10742281
H      -2.14397460     -1.49603379     -0.07216872
H       0.28813233     -2.01966730     -0.18110335
