10
b3lypvtz=-191484.71748216
C       0.66198963      1.15100309      0.00000807
C      -0.66205920      1.15096324      0.00000814
O      -1.43460051     -0.00004282     -0.00000889
C      -0.66199013     -1.15100305      0.00000830
C       0.66205870     -1.15096329      0.00000815
O       1.43460008      0.00004282     -0.00000905
H       1.25008588      2.05361053      0.00002390
H      -1.25020901      2.05353565      0.00002403
H      -1.25008618     -2.05361043      0.00002422
H       1.25020873     -2.05353574      0.00002412
