13
b3lypvtz=-179765.2426600925
C       1.14035361     -1.02368508     -0.07405025
C       1.79299795      0.07626750      0.31953384
N       0.74417777      1.01212585      0.06102861
C      -0.03465125     -0.16318760     -0.49922330
C      -1.36358260     -0.34686413      0.20610635
O      -2.24145508      0.74392780     -0.03870974
H       1.30761283     -2.08461527      0.00159122
H       2.75472183      0.30804294      0.75648612
H       0.95922908      1.74481231     -0.60937018
H      -0.18012005     -0.07029666     -1.57745619
H      -1.18657594     -0.48093191      1.27883078
H      -1.86611765     -1.23982066     -0.17028233
H      -1.82659050      1.52422490      0.34551505
