14
b3lypvtz=-190632.32567481
C      -2.45607461     -0.01104844      0.03256464
N      -1.15091475     -0.63233536     -0.04804865
C       0.01416035      0.07532789     -0.01689533
N       0.15966609      1.34468254     -0.01381031
C       1.28566360     -0.76171072     -0.01020738
O       2.42840083      0.04382963      0.04393555
H      -3.21892813     -0.78612718      0.01561551
H      -2.57840170      0.57301280      0.95021156
H      -2.62933985      0.65012923     -0.81974855
H      -1.09506334     -1.62629198      0.08780608
H      -0.71114814      1.86555723     -0.01680215
H       1.29408719     -1.38703035     -0.91299397
H       1.25505713     -1.44130032      0.85248255
H       2.08523434      0.95667102      0.03415246
