13
b3lypvtz=-179778.42281261
C       1.64718448      0.29422834     -0.22879012
C       0.41979399     -0.21094972      0.49934825
O      -0.03057644     -1.51743880      0.04013364
C      -1.35630899     -1.02799221     -0.29108993
C      -0.94056383      0.36649666      0.11663007
N      -1.53070950      1.47324599      0.08595265
H       2.49649611     -0.36037897     -0.02935724
H       1.90574067      1.29833626      0.11476211
H       1.47649604      0.32451156     -1.30498844
H       0.58784070     -0.22361117      1.58267427
H      -2.13597549     -1.48112649      0.32734309
H      -1.60180847     -1.16340704     -1.34728637
H      -0.93760929      2.22808559      0.43466802
