14
b3lypvtz=-167298.89584006823
C       1.56648320      0.34637095     -0.34097510
C       0.69742417     -0.82665060      0.06832668
C       0.52236370      0.51152914      0.72837799
N      -0.77136736      1.03025244      0.29304023
C      -1.52298019     -0.16435861     -0.16470580
N      -0.51802730     -1.08726660     -0.68603229
H       2.60729833      0.31972778     -0.04342960
H       1.36636044      0.81645129     -1.29494442
H       1.14842079     -1.66664531      0.57972138
H       0.82193253      0.69064704      1.75254419
H      -1.24251186      1.49845439      1.05681060
H      -2.06123984     -0.64362375      0.66424142
H      -2.24496648      0.09438518     -0.94004722
H      -0.36919017     -0.91927336     -1.67292806
