14
b3lypvtz=-190628.12127976
C       1.66086909     -1.00602965      0.07511988
C       0.65012885      0.09652798     -0.01422399
N       1.20124884      1.40320062      0.00094598
C      -0.67697076     -0.08917812     -0.00701439
N      -1.57670861      0.99650420      0.02204971
O      -1.31338682     -1.32531499      0.01258157
H       2.36831225     -0.79945701      0.88235067
H       2.24397479     -1.09571429     -0.84810647
H       1.20968735     -1.97629713      0.27969044
H       0.49930286      2.08763395     -0.25450972
H       1.99562683      1.48510646     -0.62273281
H      -2.44769811      0.75578243     -0.43408895
H      -1.78710547      1.30294923      0.96558800
H      -0.73676008     -1.98632369     -0.38168792
