11
b3lypvtz=-199911.63355359
C      -1.95677159      0.97866234      0.13882181
C      -0.98386902      0.16585847      0.56081740
N       0.25906091      0.19189993     -0.10415484
N       1.08721522     -0.60285472      0.39047989
N       2.25942694     -0.65406375     -0.26268690
O      -1.14051783     -0.68048031      1.60424407
H      -2.91984377      0.98859256      0.62396212
H      -1.76857026      1.62947873     -0.69856541
H       2.45202149      0.13012884     -0.87755997
H       3.01448099     -0.98752119      0.31279523
H      -0.30263308     -1.15970089      1.70413700
