10
b3lypvtz=-214834.99691265
O      -0.21364506     -1.16152874     -1.95301160
C      -0.98892728     -0.52542531     -1.29476528
C      -0.61400695      0.36926962     -0.12711645
C       0.87367714      0.41709634      0.12782914
O       1.61193099      1.27997306     -0.26317368
O       1.28353383     -0.64348789      0.85491924
H      -2.07648236     -0.54533959     -1.50877246
H      -1.15113500      0.00825689      0.75407592
H      -0.97174025      1.37754078     -0.34416404
H       2.24679494     -0.57625516      0.93797921
