14
b3lypvtz=-169699.79322794
C      -2.58436856     -0.00007079      0.10338238
C      -1.35830977     -0.00001987     -0.40661379
C      -0.09961747     -0.00001386      0.38764546
C       0.99542090      1.03322011      0.02163140
O       1.99275870      0.00004676     -0.13168724
C       0.99546627     -1.03317903      0.02157213
H      -3.46252164     -0.00007849     -0.52861371
H      -2.75312691     -0.00011600      1.17404842
H      -1.23477420      0.00001860     -1.48723279
H      -0.32324179     -0.00004958      1.45393637
H       1.26298834      1.75098727      0.79950005
H       0.81606734      1.56693129     -0.91690749
H       1.26306475     -1.75097887      0.79940000
H       0.81613604     -1.56684454     -0.91699719
