12
b3lypvtz=-218171.47795674
C      -2.08236121     -0.67445475     -0.02567246
O      -0.67763349     -0.68124644      0.21238520
C      -0.00708961      0.48402415      0.06129106
N      -0.45243075      1.63477320     -0.21697442
C       1.46599212      0.29022127      0.32318927
F       1.96223301     -0.79205916     -0.39009745
H      -2.41208692     -1.70090351      0.10541686
H      -2.60146449     -0.03146177      0.68931879
H      -2.30634938     -0.34550376     -1.04286803
H      -1.46427567      1.66552204     -0.31422667
H       1.99659266      1.19031863      0.02227792
H       1.62980072      0.09350509      1.38581793
