11
b3lypvtz=-202348.58355702
C      -2.66179522     -0.17948330      0.00000470
C      -1.42009311      0.30159152      0.00000279
N      -0.30472109     -0.53775246     -0.00000617
C       0.86341814     -0.05592735     -0.00000670
O       1.95890449     -0.84535462      0.00000140
O       1.19591673      1.24691644      0.00000634
H      -3.51117957      0.48786608     -0.00001428
H      -2.84625531     -1.24522356      0.00002454
H      -1.24924061      1.37504553      0.00000607
H       1.63856610     -1.75758946     -0.00000245
H       2.15786946      1.32484016      0.00001275
