13
b3lypvtz=-177346.72351979697
C      -2.50804832     -0.33154410     -0.20353365
C      -1.09751763     -0.78785398     -0.31923863
N      -0.09851124     -0.02364610      0.02307846
N       1.19503137     -0.30676285     -0.02979344
N       1.84734222      0.79198058      0.42710828
C       3.12515634      0.72364402      0.45744978
H      -3.01411349     -0.34440208     -1.17351568
H      -2.56886014      0.68471417      0.18936476
H      -3.08583691     -0.98066307      0.46129949
H      -0.84219185     -1.76924775     -0.69078327
H      -0.29012312      0.91806571      0.38167424
H       3.66686541      1.58721239      0.81777520
H       3.67080736     -0.16149696      0.13716688
