9
b3lypvtz=-227491.89919575
C      -1.11180777     -0.06808267     -0.49549557
N      -2.15229727      0.65301726     -0.47580889
N       0.14365596      0.53116604     -0.35985741
C       1.19424089     -0.15826558     -0.36835694
O       2.42165051      0.32592140     -0.24789454
F       1.26865360     -1.48338251     -0.49785786
H      -1.12380439     -1.15575574     -0.61440379
H      -2.97950158      0.06956889     -0.58555019
H       2.33921005      1.28581291     -0.15629805
