13
b3lypvtz=-203097.34187355
N      -2.51713037     -0.24447895     -0.44988926
C      -1.47127884      0.23728598      0.47127652
C      -0.21746199     -0.56115370      0.30044517
C       0.98503389     -0.04233108      0.04878661
O       1.23250866      1.28416133     -0.04582482
O       2.13893450     -0.74964098     -0.13576717
H      -3.37763760      0.27080037     -0.30029525
H      -2.23312717     -0.06956602     -1.40746982
H      -1.23903089      1.30220575      0.35955592
H      -1.86237640      0.10490751      1.48552044
H      -0.30264886     -1.63857012      0.37228275
H       2.14879426      1.39599562     -0.32450081
H       1.94000784     -1.69156872     -0.11130729
