15
b3lypvtz=-180544.81414535452
C       2.55852973      0.61093968      0.78918477
N       1.72455457      0.06311711     -0.28177625
C      -1.39571062     -1.49465659      0.02831605
C      -2.42016630     -0.67722873     -0.21766986
C      -2.25309739      0.74130738     -0.59488271
O      -1.19625060      1.32063397     -0.72338238
H       3.01956866      1.58235410      0.56684369
H       3.35840302     -0.09233450      1.02660506
H       1.95450678      0.72964233      1.68962049
H       2.26664662     -0.05211592     -1.12939542
H       0.96154564      0.69464125     -0.50207156
H      -1.56754607     -2.52819756      0.30078574
H      -0.36585902     -1.15785828     -0.03613129
H      -3.44399409     -1.02858597     -0.14907050
H      -3.20113087      1.28834171     -0.76697581
