15
b3lypvtz=-157252.60735323
C       2.09865154     -0.99871602      0.00380636
C       0.76552490     -0.87267871     -0.00467183
C       0.01533725      0.37092771      0.00297864
C       0.77498727      1.67115761      0.00354764
C      -1.33598119      0.39292755      0.00027948
N      -2.21217362     -0.67962539     -0.06573802
H       2.56577021     -1.97372287     -0.00636819
H       2.76093630     -0.14372523      0.01796316
H       0.18964996     -1.79330874     -0.03095537
H       0.09606993      2.52394293      0.00925388
H       1.41738196      1.76210085     -0.87729904
H       1.42503009      1.75653007      0.87915402
H      -1.84025967      1.35218216     -0.00782402
H      -1.85250118     -1.58081822      0.20372499
H      -3.12890075     -0.50881870      0.31290331
