14
b3lypvtz=-146389.79671166
C      -2.05477511     -0.68411185      0.19414443
C      -0.83770339     -0.19021096      0.02646937
C      -0.24440248      1.21580208      0.15642302
C       1.05791249      0.66861253     -0.44969593
C       0.42796319     -0.73714624     -0.53916418
C       1.58587107     -0.44200400      0.39133347
H      -2.86171310     -0.07652038      0.58358500
H      -2.28682902     -1.71064101     -0.06081145
H      -0.16654809      1.64419720      1.15819163
H      -0.75647956      1.92596817     -0.49313813
H       1.66137244      1.17194618     -1.19028999
H       0.51268513     -1.48281385     -1.31700775
H       1.43123289     -0.43969305      1.46452477
H       2.53141353     -0.86338480      0.07543574
