12
b3lypvtz=-166579.113401
C       0.77553478      1.43161987      0.00291054
C       0.79245955     -0.06725172      0.00484560
N       2.04038926     -0.62912621     -0.04688085
C      -0.33151282     -0.82587955      0.00738996
C      -1.63400996     -0.28204981     -0.00538043
N      -2.71000917      0.14206660     -0.01149401
H       1.30679336      1.81804906      0.87664374
H       1.28212790      1.81237830     -0.88652402
H      -0.23955541      1.81695169      0.01890495
H       2.13532265     -1.61607593      0.12311022
H       2.82676210     -0.06983302      0.23308854
H      -0.26014824     -1.90659127      0.01237075
