14
b3lypvtz=-190616.0127691
C       2.33702739     -0.30395346      0.09019734
O       1.18107641     -0.37494437     -0.73428875
C       0.19763709      0.54273784     -0.40309732
C      -1.01098668      0.11661146     -0.00549780
N      -1.31987340     -1.23407040      0.12278923
N      -2.04226249      0.98479409      0.40315387
H       2.09126179     -0.50500606      1.13723641
H       2.80886521      0.68290689      0.02289563
H       3.03698948     -1.05614372     -0.27173570
H       0.44077724      1.59358329     -0.51180814
H      -0.79712252     -1.83995871     -0.48853308
H      -2.30056815     -1.45149984      0.18137006
H      -1.74568368      1.95030165      0.40340837
H      -2.87723768      0.89464132     -0.16499011
