15
b3lypvtz=-157245.76425574
C      -2.87291348     -0.31527660     -0.15570132
C      -1.55551857     -0.36358442      0.03742673
N      -0.78538877      0.79849068     -0.05105555
C       0.47496215      0.79455651      0.13664133
C       1.41993674     -0.33176151      0.46900174
C       2.67085642     -0.30060362     -0.41823488
H      -3.48019234     -1.20687822     -0.08945360
H      -3.35885325      0.62415751     -0.38185588
H      -1.08134631     -1.31531327      0.26864845
H       0.96364064      1.76794919      0.04520614
H       0.93421150     -1.30335974      0.39897408
H       1.72358934     -0.20922079      1.51523496
H       3.17903242      0.66300758     -0.34816407
H       3.37922823     -1.07334172     -0.11849281
H       2.41453330     -0.46576959     -1.46559331
