13
b3lypvtz=-179812.62656563
C      -1.95731624     -1.03712701     -0.00001688
C      -0.98867567     -0.11806597     -0.00001348
C      -1.27242913      1.35603871     -0.00002773
N       0.35795491     -0.51092234      0.00000275
C       1.48055305      0.27006527      0.00001673
O       2.60553968     -0.18073006      0.00002561
H      -1.74105858     -2.09734981     -0.00000556
H      -2.99439924     -0.74074416     -0.00003152
H      -0.85211754      1.84683895     -0.88068074
H      -0.85213928      1.84685149      0.88062866
H      -2.34710160      1.51975536     -0.00004227
H       0.54907801     -1.50385625      0.00001321
H       1.27260063      1.34870683     -0.00001578
