11
b3lypvtz=-202342.14684721
N      -1.03985490      1.21879045     -0.10232931
C      -0.88476441     -0.12256069      0.03355114
O      -1.77792678     -0.94006482     -0.07883988
C       0.53128610     -0.56239627      0.30854244
C       1.60329424     -0.28902004     -0.65810132
O       1.50878008      0.45408618      0.56019484
H      -1.96739703      1.58448028     -0.23122594
H      -0.28786810      1.83441623      0.15733304
H       0.59831330     -1.44739920      0.93038453
H       2.44474490     -0.97000813     -0.72015851
H       1.37280660      0.26780601     -1.55964602
