13
b3lypvtz=-179773.8760170105
C      -0.50917405      1.20451556      0.73318252
C      -0.13961694      0.04376865     -0.16267629
C       0.94210426      0.14065203     -1.10289240
N      -0.11613742      0.34998966     -1.72420105
O       2.24885404      0.08568109     -1.36901338
C      -0.71313432     -1.29616718      0.23994141
H      -0.09960203      2.14083403      0.35709602
H      -1.59594223      1.30530412      0.79051109
H      -0.14162158      1.05135389      1.75163798
H       2.72860825     -0.11488186     -0.55716297
H      -0.35796556     -1.59734155      1.22939400
H      -1.80357133     -1.24069231      0.28796069
H      -0.44280109     -2.07301613     -0.47377759
