12
b3lypvtz=-189829.23246128
O       2.22023982     -1.20877852      0.38115293
N       1.66062281      0.10701515      0.48489306
C       0.46024933      0.07422505      0.07638351
C      -0.57781473      1.15667102     -0.13008261
C      -1.37966835      0.04834331     -0.88087087
N      -0.37350483     -0.92258457     -0.40311101
H       3.11542175     -1.06836894      0.70121180
H      -0.25323007      2.00109184     -0.73256091
H      -1.04635891      1.51483299      0.78428268
H      -1.39310774      0.18515761     -1.96371355
H      -2.38941552     -0.15093447     -0.52342988
H      -0.04333356     -1.73657047     -0.89875513
