11
b3lypvtz=-202345.13942107
C      -0.07810124      0.39579675     -0.16224242
C      -1.41599864     -0.19855485      0.15712319
N      -2.41408352      0.03588654     -0.58153259
O       0.91735880     -0.62660682      0.07068609
C       2.19335278     -0.21236050      0.10999460
O       2.57127588      0.91659920     -0.02396909
H       0.13163726      1.24966300      0.48629760
H      -0.04274631      0.72993348     -1.19762211
H      -1.44758333     -0.80932516      1.06602861
H      -3.25769191     -0.40224159     -0.21300256
H       2.84258023     -1.07879006      0.28823866
