10
b3lypvtz=-212398.4397678
O      -2.17007778      1.28914827     -0.22014141
C      -1.96148282      0.14482241     -0.54478725
N      -0.72943556     -0.46178588     -0.54085443
C       0.44051757      0.17617625     -0.15757257
N       1.53308447     -0.47066444     -0.18742974
O       2.60194990      0.33807178      0.23344261
H      -2.75270317     -0.54353729     -0.88397804
H      -0.65724623     -1.42533255     -0.83070146
H       0.34072794      1.21046426      0.14955526
H       3.35466567     -0.25736282      0.16646703
