16
b3lypvtz=-196382.59023346
C      -1.38953663      1.31303673      0.16215723
N      -0.96365496     -0.00468237     -0.28890281
C      -2.00832660     -0.99383359     -0.06919401
C       0.31128267     -0.41513858      0.28745221
C       1.48530862      0.27021465     -0.39390357
F       2.67353849     -0.19978689      0.16988283
H      -0.63064679      2.06193028     -0.06043175
H      -2.30106333      1.60222020     -0.36180530
H      -1.59275699      1.34533847      1.24670383
H      -2.24841304     -1.13947794      0.99815913
H      -2.92133249     -0.68047661     -0.57721510
H      -1.70432677     -1.95519032     -0.48366134
H       0.36242978     -0.23038718      1.37364579
H       0.42950688     -1.48977901      0.14141447
H       1.49735646      0.03927578     -1.45987967
H       1.47103271      1.35303238     -0.26212096
