13
b3lypvtz=-179811.45630438
C       2.51537083     -0.04816990      0.00002908
C       1.33272573     -0.64926384      0.00002863
C       0.06366844      0.13976910      0.00002475
O       0.04026359      1.36048834      0.00003470
N      -1.06644915     -0.62667109     -0.00000397
C      -2.40170316     -0.06358298      0.00004142
H       3.43962477     -0.60954079      0.00002081
H       2.57072395      1.03270747      0.00003162
H       1.26228939     -1.73210651      0.00003016
H      -0.96434703     -1.62643886      0.00004777
H      -2.95977256     -0.36932950     -0.88739513
H      -2.30235512      1.01849735     -0.00015819
H      -2.95961269     -0.36899280      0.88769635
