15
b3lypvtz=-180555.1878245
C       2.66516160      0.64571233     -0.00015355
C       1.66804667     -0.50481041      0.00027106
N       0.29642832      0.00515224      0.00023964
C      -0.64896614     -0.82358856     -0.00007938
O      -1.94963280     -0.48452531     -0.00020861
C      -2.23839772      0.91866801      0.00007394
H       2.52637365      1.27263147     -0.88178968
H       3.69055156      0.27150250     -0.00012248
H       2.52650256      1.27314440      0.88113699
H       1.83849496     -1.13535286     -0.87952550
H       1.83861113     -1.13476412      0.88046088
H      -0.55405742     -1.91285567     -0.00049131
H      -1.81864559      1.39725394     -0.88455842
H      -3.32223131      0.99482683     -0.00014128
H      -1.81903146      1.39683222      0.88511670
