13
b3lypvtz=-177392.9412429
C       2.31631378     -0.27688155      0.29144744
N       1.29259988     -0.52447622     -0.40465411
C       0.09027762      0.19352902     -0.13223868
N      -0.05273808      1.46356650     -0.11206281
N      -0.95627432     -0.66016149      0.07069422
C      -2.31756000     -0.16419322      0.13458833
H       3.24619277     -0.79459027      0.06865381
H       2.32249515      0.44286476      1.11540094
H       0.83556114      1.93152477     -0.25853106
H      -0.80961461     -1.59756930     -0.26116678
H      -2.98078612     -0.99224557      0.37853560
H      -2.63851387      0.29202503     -0.80669898
H      -2.39784835      0.59372054      0.91150508
