14
b3lypvtz=-167305.02760537
C       2.88510950      0.04990247      0.29154642
N       1.82387333     -0.43170820     -0.20986362
N       0.68951699      0.35925750      0.07832204
C      -0.37054348     -0.12042184     -0.43731058
C      -1.69598282      0.54181982     -0.26057294
C      -2.71831677     -0.37553813      0.42558124
H       2.88889223      0.97153885      0.87273826
H       3.81376997     -0.48465789      0.12682340
H      -0.32254097     -1.04597343     -1.01696038
H      -2.07549681      0.81943214     -1.25011537
H      -1.55611708      1.46183833      0.30682896
H      -2.85916395     -1.30253585     -0.13330505
H      -2.39280241     -0.63759687      1.43294120
H      -3.68703773      0.11905910      0.50070042
