13
b3lypvtz=-179793.87300574215
C       1.55029631     -0.83827171     -1.21086668
C       0.94266586      0.24546187     -0.71609567
C      -0.20640646      0.25502805      0.16500160
N      -0.84531202     -0.95340444      0.62132442
H      -2.04762904      0.49351835      1.58240832
H      -0.19855051     -1.54056010      1.13717187
H      -1.18776148     -1.50619907     -0.15732492
C      -0.75521079      1.39954193      0.61716733
O      -1.82100293      1.43196250      1.43498011
H       1.21452762     -1.84124656     -0.98036909
H       2.40607602     -0.75006472     -1.86443752
H       1.32689630      1.22551353     -0.98442104
H      -0.37858888      2.37872038      0.35546126
