17
b3lypvtz=-158006.93506107
C       3.15114039     -0.23500138     -0.11185559
C       1.77053825      0.32755960     -0.25411332
C       0.70287161     -0.07155069      0.42901100
C      -0.67121405      0.50826672      0.28458651
N      -1.64610368     -0.52708717     -0.05134341
C      -3.00698009     -0.02671715     -0.17678793
H       3.18079282     -1.04405604      0.61852620
H       3.86005789      0.53516526      0.20547627
H       3.51983317     -0.62275205     -1.06566944
H       1.65422637      1.13335270     -0.97560056
H       0.79371973     -0.88277562      1.14648532
H      -0.65167079      1.33570636     -0.44438123
H      -0.98526393      0.94570679      1.23979996
H      -1.36284029     -0.98342496     -0.91007861
H      -3.11981927      0.80005693     -0.89659256
H      -3.35428111      0.33413941      0.79400629
H      -3.66897704     -0.83724371     -0.48285288
