15
b3lypvtz=-180538.93156407
C       2.26991505     -0.91452459     -0.08176827
N       1.66753068      0.01515402      0.51742206
C       0.86252717      0.93115296     -0.27135141
C      -0.59825434      0.86149420      0.14114648
O      -1.14051103     -0.36479664     -0.30681172
C      -2.47829699     -0.55787168      0.09644664
H       2.22576063     -1.06312588     -1.16761322
H       2.86993665     -1.61836303      0.49131691
H       0.94131761      0.74157481     -1.35094855
H       1.21930829      1.94553404     -0.07351463
H      -1.14590592      1.70461995     -0.30320759
H      -0.67625284      0.94065617      1.23299321
H      -2.57256690     -0.56668626      1.18952232
H      -2.80014952     -1.52182921     -0.29379707
H      -3.13778354      0.22448614     -0.30151015
