13
b3lypvtz=-179787.51711916
C       1.91451958     -0.42314773     -0.24661345
C       0.67007691      0.11482808      0.43349480
N       0.13452350      1.40918604     -0.08930646
C      -1.25364628      0.88340669     -0.19813821
C      -0.68655005     -0.51212620      0.07666685
O      -1.10297196     -1.62847837      0.00092749
H       2.10812575     -1.44707643      0.07719163
H       1.79071515     -0.41534645     -1.32944771
H       2.78486129      0.18597705      0.00192119
H       0.79602286      0.10642946      1.52456093
H       0.23275555      2.18625109      0.55022282
H      -1.72587590      1.03123315     -1.17107917
H      -1.94845342      1.20271561      0.58663728
