11
b3lypvtz=-204930.65800906
N      -2.04407131      0.42799194     -0.85988742
C      -0.78863042      0.52480824     -0.73365625
C       0.04871090     -0.08234495      0.35888321
N      -0.36592537     -0.41334747      1.51071456
C       1.51695423     -0.25148630      0.05790950
F       1.69676470     -0.63959915     -1.26774900
H      -2.45261798     -0.15640016     -0.12371818
H      -0.24424300      1.09061825     -1.48885354
H      -1.35690990     -0.19133677      1.63354660
H       1.94704225     -1.00633543      0.71331652
H       2.04282590      0.69753179      0.19959401
