10
b3lypvtz=-217424.42279505
O       1.76860022     -1.43541658     -0.98167376
C       1.75328968     -0.51668545     -0.19577881
N       0.62559339      0.14523380      0.21283515
C      -0.65098585     -0.17386600     -0.23963527
C      -1.74925957      0.45889663      0.14700112
F      -1.68207211      1.48388942      1.03334518
H       2.66149058     -0.10982904      0.27832926
H       0.72387353      0.89992677      0.87303834
H      -0.70015179     -0.98902540     -0.94377439
H      -2.75037808      0.23697584     -0.18388681
