8
b3lypvtz=-144070.16373338
C       0.00000000      0.00000000      3.16942528
C       0.00000000      0.00000000      1.96248973
C       0.00000000      0.00000000      0.60749220
C       0.00000000      0.00000000     -0.60749220
C       0.00000000      0.00000000     -1.96248973
C       0.00000000      0.00000000     -3.16942528
H       0.00000000      0.00000000      4.23102477
H       0.00000000      0.00000000     -4.23102477
