15
b3lypvtz=-157234.75330307
C       2.99178518     -0.04001939      0.12322522
C       1.54762239     -0.02159343     -0.06577802
C       0.35529855     -0.00700242     -0.22524397
C      -1.10660363      0.03978248     -0.39449728
C      -1.77692384     -1.20956921      0.18639019
N      -1.73483626      1.24186518      0.18274957
H       3.31688625     -0.97218845      0.58984378
H       3.51568594      0.05552442     -0.83004993
H       3.31558307      0.78286568      0.76407841
H      -1.32020980      0.06688218     -1.46726562
H      -2.85112169     -1.16429686      0.00970485
H      -1.60285677     -1.26919317      1.26250901
H      -1.37410907     -2.11344612     -0.26961847
H      -1.53685856      1.27434006      1.17813213
H      -1.30681074      2.07179906     -0.21310688
