12
b3lypvtz=-192262.01959196
C      -2.07538964      0.46058673      0.11924635
O      -0.65843821      0.53569152     -0.04428853
C       0.01599102     -0.61871195      0.07702079
C       1.35302398     -0.71006311     -0.01317319
C       2.24542260      0.41939317     -0.24180442
O       3.45329931      0.31699822     -0.32105778
H      -2.45825233      1.46197374     -0.05479398
H      -2.51448272     -0.22755486     -0.60633077
H      -2.33253386      0.14364516      1.13219686
H      -0.59287377     -1.50223023      0.25228192
H       1.80726488     -1.68562617      0.09103353
H       1.75696873      1.40589777     -0.34179159
