13
b3lypvtz=-179815.05044647
C      -2.48671867      0.17977905      0.20138617
C      -1.42178706     -0.26011738     -0.45945166
C      -0.20165633     -0.85858075      0.17325070
C       1.09100405     -0.03971171      0.04434121
N       0.92498314      1.30979408      0.01227034
O       2.18360856     -0.57074415      0.01241031
H      -3.34022577      0.60092784     -0.31341111
H      -2.54851477      0.12036331      1.28213408
H      -1.40887917     -0.18925109     -1.54346736
H       0.02734173     -1.83237802     -0.26109567
H      -0.36831127     -1.01644144      1.24251744
H       1.74239098      1.89328543     -0.03065463
H       0.01302259      1.72895983      0.04019620
