15
b3lypvtz=-157236.76104474
C       2.13870728     -0.70689861      0.20723913
C       1.08793285     -0.15768405     -0.38395278
C      -0.04654807      0.52608702      0.32906921
N      -0.20159519      1.88904566     -0.22618198
C      -1.34421259     -0.25793010      0.29301336
C      -1.53071909     -1.48116355     -0.18661436
H       2.92704920     -1.18113582     -0.36252702
H       2.25216720     -0.70009113      1.28513266
H       1.01000044     -0.18214698     -1.46766292
H       0.24093342      0.65468195      1.37747230
H      -0.86905229      2.41521165      0.32742202
H      -0.59145190      1.83107923     -1.16184270
H      -2.19501572      0.28438259      0.69958565
H      -0.71626354     -2.06791775     -0.59151021
H      -2.50999800     -1.94182811     -0.18029435
