19
b3lypvtz=-158768.79281985
C      -1.02741864      1.18799344      0.82292776
C      -0.66575962      0.28539138     -0.37039862
C      -1.72411759     -0.79998508     -0.57921026
N       0.68607479     -0.29791482     -0.32606033
C       1.74290688      0.65867379     -0.60190578
C       0.98855515     -1.10162723      0.84696975
H      -1.98529557      1.68107897      0.64757168
H      -1.11908280      0.61222713      1.74588989
H      -0.28005117      1.96658565      0.98267137
H      -0.66886085      0.91129130     -1.26732248
H      -1.45131451     -1.43983149     -1.41840513
H      -1.84387747     -1.42799029      0.30563168
H      -2.69504319     -0.34697951     -0.78733949
H       2.68769224      0.12783605     -0.73531123
H       1.52673243      1.19478633     -1.52731743
H       1.89589290      1.40494460      0.19643329
H       0.20759546     -1.84135170      1.01751983
H       1.92162427     -1.64272387      0.67877293
H       1.11057530     -0.51384065      1.77177758
