10
b3lypvtz=-191516.19437394
O      -2.06858955      0.02499365      0.00010924
C      -0.85809762      0.06497528      0.00012361
C       0.05490012      1.20262630     -0.00005730
C       1.30554755      0.70935356     -0.00000575
O       1.41355654     -0.63349636      0.00018261
C       0.06838480     -1.15923212      0.00027196
H      -0.22951818      2.24044192     -0.00020701
H       2.25121253      1.23189927     -0.00012622
H      -0.06920323     -1.77125012     -0.89035151
H      -0.06917096     -1.77103937      0.89104438
