18
b3lypvtz=-147939.20196507
C      -0.96286661      1.41629365      0.00000005
C      -0.41619203     -0.01073360      0.00000005
C      -1.55251473     -1.02460147     -0.00000011
C       0.68923615     -0.21363452      1.08498921
C       1.77440261     -0.00198049      0.00000000
C       0.68923607     -0.21363462     -1.08498912
H      -1.58050632      1.59707603     -0.88337644
H      -1.58050628      1.59707606      0.88337655
H      -0.15925978      2.15564563      0.00000003
H      -1.17055832     -2.04748668     -0.00000009
H      -2.18719665     -0.90495939     -0.88229872
H      -2.18719666     -0.90495942      0.88229850
H       0.69210139     -1.23234167      1.47528197
H       0.68101625      0.47843584      1.92810584
H       2.61332732     -0.69649777     -0.00000002
H       2.17315621      1.01205155     -0.00000006
H       0.69210125     -1.23234180     -1.47528183
H       0.68101612      0.47843568     -1.92810579
