14
b3lypvtz=-190604.25629753
C       2.60887672      0.54183677      0.14792310
N       1.61790529     -0.44837678     -0.24215639
N       0.32625106     -0.01939247     -0.11823348
C      -0.61664267     -0.85320091      0.04668737
C      -2.03377446     -0.36029153      0.09147062
O      -2.13290690      1.03876010     -0.02537442
H       2.46245447      1.44125558     -0.44787870
H       3.59915859      0.14211711     -0.06873512
H       2.56052321      0.81633186      1.20850569
H       1.78132037     -1.36389175      0.16836867
H      -0.44394986     -1.92968722      0.14221341
H      -2.49517053     -0.68670031      1.03349456
H      -2.60278327     -0.84747476     -0.71365683
H      -1.23086202      1.36237831     -0.16121547
