13
b3lypvtz=-177394.12399158
C       2.33004858     -0.18724343     -0.06073861
N       1.01254644     -0.78604236      0.01053804
C      -0.00673845     -0.01709448      0.05075930
N      -0.00540485      1.36330953     -0.00212858
C      -1.33678463     -0.69078135      0.08757141
N      -2.48371209     -0.18534318     -0.10262951
H       3.08549081     -0.96829125     -0.00245460
H       2.51728445      0.51819023      0.76187398
H       2.48176038      0.35647238     -1.00145175
H      -0.78806208      1.83884643      0.41707207
H       0.87465479      1.82793943      0.14538369
H      -1.25580185     -1.75750334      0.28687262
H      -2.43171449      0.81135539     -0.32327806
