9
b3lypvtz=-175865.66386862
N       2.50968670     -0.55377945     -0.00005130
C       1.42102447     -0.17691611      0.00002775
C       0.04996820      0.29101887     -0.00001947
N      -0.27062538      1.52017559      0.00000838
C      -1.01998117     -0.76879223      0.00000367
N      -2.25715054     -0.52156933     -0.00001345
H       0.53945448      2.13725460      0.00002780
H      -0.67451257     -1.80123675      0.00002758
H      -2.41249619      0.49194980     -0.00001497
