18
b3lypvtz=-171244.75427728
C       2.93150294     -0.36724938     -0.11969438
C       1.47364795     -0.38937141      0.33697112
C       0.66301335      0.79281400     -0.19726362
C      -0.79625811      0.77856273      0.22476937
O      -1.43409989     -0.35504286     -0.33871413
C      -2.79254099     -0.46283056      0.02109631
H       3.48649848     -1.21780686      0.27946576
H       3.00356561     -0.40738027     -1.20895685
H       3.43822254      0.54301871      0.21004301
H       1.43283523     -0.38521984      1.43116025
H       0.99856583     -1.31796329      0.01573052
H       1.10677203      1.73241687      0.14746661
H       0.70729595      0.80806081     -1.29029279
H      -0.87810299      0.74608183      1.32187515
H      -1.30063680      1.69508146     -0.11289986
H      -2.91704992     -0.55965772      1.10745346
H      -3.18856981     -1.35570418     -0.45997819
H      -3.37062139      0.40775396     -0.31553873
