12
b3lypvtz=-168912.56455205
C       1.28198063     -0.50587538      0.01343202
C       0.52694771      0.78889485      0.13019873
C       0.11920948     -0.27195694     -0.91037926
C      -1.17667289     -0.46274326     -0.15994504
C      -0.78615456      0.55324038      0.83673414
O      -1.87053336      0.79076480     -0.07317905
H       2.26206918     -0.43646298     -0.44145704
H       1.21172903     -1.24915473      0.79884831
H       0.98162196      1.74897063     -0.06514961
H       0.23029377     -0.20596530     -1.98271381
H      -1.76853089     -1.35893192     -0.03861474
H      -1.01196008      0.60921985      1.89222537
