8
b3lypvtz=-188293.4718115236
C      -0.87560433     -0.53213020      0.39623686
C       0.20236810      0.07756169     -0.09406841
C       1.31947521     -0.59572715     -0.66855935
N       2.22981547     -1.12517709     -1.13551104
N       0.35177949      1.56678564     -0.09080304
O      -0.57858018      2.14537930      0.38994228
H      -0.97659805     -1.60722788      0.39019236
H      -1.67265573      0.07053569      0.81257032
