10
b3lypvtz=-168176.12193098
C      -2.93082043      0.37416075      0.00007632
C      -1.93370698     -0.51515991     -0.00001821
C      -0.56280381     -0.16212797     -0.00006804
C       0.62073503      0.08503100     -0.00011465
C       2.01235372      0.44585357     -0.00017255
O       2.92427734     -0.34996189     -0.00026045
H      -3.96219751      0.05010498      0.00010607
H      -2.74018099      1.43866405      0.00012704
H      -2.15605479     -1.57703049     -0.00006170
H       2.20157841      1.53463691     -0.00013982
