11
b3lypvtz=-199899.79698043
C      -1.18709890      0.96944507     -0.65025096
C      -0.05698306      0.00665316     -0.46774757
N       0.76585742     -0.27204247     -1.38453939
N      -0.08462220     -0.64220911      0.82105327
N       0.94811832     -0.50370483      1.45750206
O       0.86516062     -1.21255665      2.65231396
H      -1.15945117      1.37710417     -1.65680204
H      -2.14030942      0.46693359     -0.47747286
H      -1.11515690      1.78106701      0.07727076
H       1.45288874     -0.95737768     -1.07003362
H       1.71159657     -1.01331226      3.07241917
