14
b3lypvtz=-190594.8983868019
C       1.81548401     -0.17465177     -0.26739725
C       0.40493714      0.19681783      0.01958667
N       0.12461499      1.44030284      0.27579162
O       0.93253592      2.42560232      0.30826196
C      -0.70377106     -0.82088853      0.07138909
N      -2.02526739     -0.18977565      0.13274528
H       2.43407092     -0.08354564      0.63066241
H       2.24354355      0.51408490     -0.99875961
H       1.88696040     -1.19643353     -0.63878009
H      -0.86750724      1.61856455      0.47554978
H      -0.58725090     -1.50562054     -0.77940457
H      -0.58177529     -1.44170435      0.96646838
H      -2.38187231      0.00336207     -0.79459029
H      -2.69470274     -0.78611450      0.59847661
