12
b3lypvtz=-215547.88584639
C      -0.71758733      0.59706424     -0.39125020
C      -0.15796303     -0.79087316     -0.61148753
C       0.77623174      0.39485034     -0.51584550
O       1.50353172      0.52962990      0.67200850
O      -0.15342440     -1.65198218      0.49160583
O      -1.21451310      0.85035156      0.89211814
H      -1.26948632      1.08651106     -1.18343487
H      -0.29791486     -1.29046325     -1.56147545
H       1.29635445      0.75173090     -1.39548806
H       1.52683246     -0.34808736      1.08162141
H      -0.82122000     -1.31519535      1.10738559
H      -0.47084132      1.18646329      1.41424213
