12
b3lypvtz=-189894.33922356
C       2.64730239     -0.20211331     -0.00005349
C       1.23805294      0.27604723     -0.00098346
N       0.25192272     -0.52446211      0.00025259
C      -1.04666350      0.10736407     -0.00085764
N      -2.01554072     -0.83849787     -0.00035184
O      -1.25929581      1.30305105     -0.00200371
H       3.17399520      0.19018511      0.87451625
H       2.69489125     -1.28869463      0.00171700
H       3.17420651      0.18734885     -0.87576131
H       1.06412580      1.35666218     -0.00277728
H      -2.97920838     -0.55774973     -0.00103522
H      -1.76344038     -1.80965184      0.00069009
