14
b3lypvtz=-167303.06335011
C      -1.98730986     -0.73279457      0.00034551
C      -0.73984369      0.12183992     -0.00041389
N      -0.71255572      1.38809334     -0.00072698
N       0.46940652     -0.65230731     -0.00098078
C       1.61191554     -0.05741240      0.73413065
C       1.61237046     -0.05587418     -0.73400555
H      -2.59458819     -0.51299548      0.88034495
H      -1.73514103     -1.78955212      0.00122194
H      -2.59440560     -0.51456161     -0.88018076
H      -1.65096555      1.78198306     -0.00034922
H       2.20428769     -0.77774808      1.28311920
H       1.42214116      0.88922178      1.22289524
H       2.20506346     -0.77516030     -1.28402517
H       1.42297183      0.89175797     -1.22096213
