7
b3lypvtz=-255047.07399711056
C      -1.05728168     -0.22330927      0.22865118
N       0.04591177     -0.71946342     -0.10852482
C       1.09698738      0.20282675     -0.24125465
O       1.10150778      1.38095407     -0.08438956
F       2.20140878     -0.45559764     -0.59900779
F      -2.10434762     -1.00768895      0.37883064
H      -1.28418641      0.82227845      0.42569498
