14
b3lypvtz=-190591.77510272
C       2.75440100     -0.40403766      0.01007063
N       1.60522993      0.48456184     -0.10011178
C       0.33521405     -0.18727329      0.14600209
C      -0.79635069      0.79516362      0.10424374
N      -2.03614269      0.54167961     -0.00142234
O      -2.28008700     -0.84520975     -0.06723252
H       2.69415730     -1.29876968     -0.62875216
H       3.66237106      0.14033080     -0.24920303
H       2.85469381     -0.74270185      1.04330220
H       1.58996308      0.90344027     -1.02248330
H       0.37163937     -0.63698010      1.14496048
H       0.12535353     -1.01639208     -0.54548825
H      -0.55606181      1.85060432      0.17997729
H      -3.23601495     -0.88148307     -0.16904305
