11
b3lypvtz=-225613.32907247
O       1.60930630     -1.68207454     -0.97326464
N       0.78579590     -1.01969891     -0.06239338
C       0.47918782      0.15056026     -0.43186622
C      -0.46010804      0.96636046      0.42971402
O      -0.84909657      0.27944869      1.58214328
O      -1.57076058      1.37835247     -0.34268569
H       1.77146525     -2.53069866     -0.54736567
H       0.83190041      0.58115715     -1.36573087
H       0.02429669      1.90361321      0.71716620
H      -0.51212659     -0.62512135      1.51517231
H      -2.10996059      0.59810121     -0.52088934
