11
b3lypvtz=-199950.3028962
N      -1.15583792      1.35205975      0.09408908
C      -0.98575449      0.08641245      0.04652176
N      -1.94622634     -0.88220421     -0.14083960
N       0.29084147     -0.51209499      0.17357001
C       1.28432970      0.21569875     -0.09723355
O       2.52822255     -0.27147857      0.05062302
H      -2.13483497      1.60598035     -0.01048126
H      -2.90581445     -0.63355328      0.02515072
H      -1.67935497     -1.81845531      0.11283789
H       1.19832873      1.24679549     -0.44366777
H       3.16688170      0.39984457     -0.21103731
