10
b3lypvtz=-191440.68619032
C       0.78235848      0.71433878      0.00059701
C       0.72411258     -0.74436620     -0.20967391
O       1.34136072     -0.19235946      0.96277036
C      -0.78235846     -0.71433874     -0.00059718
C      -0.72411262      0.74436629      0.20967367
O      -1.34136091      0.19235961     -0.96277039
H       1.43704802      1.44830085     -0.44433664
H       1.32442077     -1.37188423     -0.85089341
H      -1.43704798     -1.44830073      0.44433664
H      -1.32442061      1.37188382      0.85089386
