19
b3lypvtz=-158775.01283808
C      -2.10621522     -0.05547883     -0.07435815
N      -0.83108549     -0.46736383     -0.64674001
C       0.41056669      0.00565790     -0.00118486
C       0.47437013      1.53628504     -0.09288702
C       0.53220920     -0.43511780      1.47176843
C       1.56717960     -0.59757416     -0.80796838
H      -2.24976432      1.01812783     -0.20020335
H      -2.24052914     -0.28834418      0.99189011
H      -2.90788026     -0.55051949     -0.62348925
H      -0.80026923     -1.47788386     -0.70707465
H       1.44058542      1.89765956      0.26204554
H      -0.29574596      2.01155398      0.51600448
H       0.34107611      1.85939749     -1.12593211
H       1.47776231     -0.10177927      1.90404274
H      -0.27047598     -0.02154475      2.08362290
H       0.49314870     -1.52399552      1.55337165
H       2.53135479     -0.27912464     -0.40931594
H       1.53839884     -1.68986178     -0.77247540
H       1.50086483     -0.29203768     -1.85231174
