12
b3lypvtz=-166534.76445759
C      -1.15451970      0.35129326      0.77776507
C      -0.13037063      0.93563733     -0.18888821
C      -0.92139618     -0.31748922     -0.53383698
N       0.32443275     -1.09626904     -0.54648058
C       1.08367912      0.05635692     -0.17899034
N       2.30347270      0.28393683      0.03199442
H      -0.82234827     -0.11683504      1.69673861
H      -2.06558162      0.93012245      0.86615057
H      -0.20663717      1.93565605     -0.58356841
H      -1.66701211     -0.45478823     -1.30213034
H       0.39269712     -1.94296584      0.00749486
H       2.86358399     -0.56465546     -0.04624867
