14
b3lypvtz=-167326.98241111
C      -2.50067006     -0.50172320      0.05843570
N      -1.13078916     -0.27834381     -0.38580449
C      -0.45613170      0.78529193      0.33505586
C       0.95885588      1.01552762     -0.21584549
C       1.82695142     -0.14264509     -0.01928451
N       2.48337071     -1.07321364      0.14627206
H      -3.10680774      0.37829419     -0.16698395
H      -2.59462125     -0.70576729      1.13597032
H      -2.92578519     -1.34384030     -0.48689171
H      -0.59995739     -1.13795314     -0.30313537
H      -0.39725709      0.61129969      1.42141400
H      -1.02249603      1.70890870      0.19250417
H       1.41639126      1.87722845      0.27406342
H       0.90203633      1.22705487     -1.28515601
