11
b3lypvtz=-179039.15580277
O       2.37787226     -0.24384563      0.16978934
C       1.04299588     -0.10218630      0.07333375
C       0.08232185     -1.02559505      0.24303321
C      -1.21732269     -0.31731528      0.01609635
C      -0.73659818      1.07170401     -0.28489245
N       0.54107137      1.18316125     -0.25005049
H       2.76844840      0.61972345     -0.01268222
H       0.20792517     -2.06490333      0.49139470
H      -1.80487183     -0.71719482     -0.81911167
H      -1.88584903     -0.31973368      0.88541761
H      -1.37589319      1.91608537     -0.51222814
