16
b3lypvtz=-168066.23057683
C       2.49050024      0.02905240     -0.22386697
N       1.25433973     -0.25241934     -0.33584513
N       0.43714272     -0.10498454      0.73361767
C      -0.99287390      0.05244879      0.43535309
C      -1.52854675     -1.19453800     -0.26413301
C      -1.30094800      1.33166187     -0.35086169
H       2.93247024      0.42769636      0.69372870
H       3.13399172     -0.14839610     -1.07468729
H       0.78119810      0.53545321      1.44595842
H      -1.46620222      0.12542997      1.41831191
H      -1.05202678     -1.32297310     -1.23527863
H      -2.60547019     -1.10942857     -0.41595476
H      -1.33007731     -2.08462903      0.33292194
H      -2.37639395      1.44804034     -0.49698178
H      -0.82299412      1.29924357     -1.33079462
H      -0.93551655      2.21535117      0.17669917
