13
b3lypvtz=-179786.93121984
C       2.60321709      0.53075416      0.15750650
C       1.56157034     -0.29369268      0.09236707
N       0.24799257      0.18099041      0.05204665
C      -0.71565386     -0.64326837     -0.01077772
C      -2.12505644     -0.14124438     -0.05426909
O      -2.20917509      1.25812861     -0.01750383
H       3.61318128      0.14854930      0.18804685
H       2.45879884      1.60217549      0.18118920
H       1.70548744     -1.37481902      0.06832529
H      -0.56755257     -1.72950501     -0.03554871
H      -2.60321998     -0.53231382     -0.96446076
H      -2.67545104     -0.58274748      0.78962271
H      -1.29423856      1.57689279      0.02925584
