12
b3lypvtz=-189875.67041511
N       2.09722715     -0.14880130      0.04682200
C       0.84116543     -0.03191613     -0.01364975
N       0.02574810      1.08470134     -0.20352272
C      -1.34554956      0.75504074      0.16355656
C      -1.32633350     -0.74832258     -0.11911613
O       0.03954205     -1.13122953      0.08801202
H       2.55566398      0.75335689     -0.03345157
H       0.40655110      1.96678039      0.09663957
H      -2.07137078      1.28317561     -0.45401843
H      -1.56078529      0.96189450      1.21773926
H      -1.95281163     -1.32873659      0.55393765
H      -1.60432205     -0.96453133     -1.15329646
