11
b3lypvtz=-179005.76578521
C       2.40289771     -0.74610022      0.40250932
C       1.33734112     -0.23705297      0.18143673
C       0.05592899      0.34979940     -0.08103467
N      -0.15620539      1.58991191     -0.28126407
C      -1.13534669     -0.58411672     -0.12185615
O      -2.32886254      0.09664479     -0.38516022
H       3.34922022     -1.18741432      0.59753500
H       0.69590504      2.14400654     -0.23631873
H      -0.94406268     -1.34814356     -0.88662052
H      -1.18945888     -1.11058281      0.83996169
H      -2.08735690      1.03304796     -0.47928837
