12
b3lypvtz=-187432.65228839
C      -0.64191447      1.59084734     -0.00017096
N       0.02344220      0.30189173      0.00001237
C      -0.69769714     -0.89130064      0.00002012
N      -1.96157045     -1.01894001     -0.00001294
N       1.38641257      0.36423539     -0.00017402
N       1.98001573     -0.72999587     -0.00011568
H      -1.26591690      1.70972081     -0.88850784
H      -1.26630168      1.70974701      0.88788586
H       0.12852416      2.35526661     -0.00000969
H      -0.05843660     -1.76471260     -0.00002496
H      -2.44961354     -0.12433516      0.00000693
H       2.97409911     -0.49479061     -0.00027118
