13
b3lypvtz=-179796.34301481
O       2.59483313     -1.12802389     -0.22368116
C       1.96562772     -0.08965336     -0.14935930
N       0.62635973     -0.01121221     -0.04819715
C      -0.39130524     -1.06219001      0.00000469
C      -1.46773408      0.05364454      0.11175762
C      -0.32178617      1.10354366      0.05368942
H       2.44404021      0.90827757     -0.15814911
H      -0.29599656     -1.72071995      0.86434103
H      -0.42934912     -1.67260420     -0.90330613
H      -2.16170773      0.09900270     -0.72317697
H      -2.02792130      0.05100647      1.04285475
H      -0.20044889      1.71055648      0.95296193
H      -0.33471169      1.75847220     -0.81963961
