13
b3lypvtz=-177368.42434735
C       1.82553412     -0.73186498     -0.43296868
C       0.98573545     -0.02268627      0.64147347
C      -0.24448100      0.64389506      0.07541794
N      -0.39354108      1.87205706     -0.20031461
N      -1.42171146     -0.15199372     -0.23357408
N      -1.33494751     -1.32996260      0.14288857
H       1.25822381     -1.53068305     -0.90833827
H       2.71634670     -1.17261026      0.01591682
H       2.14764111     -0.03288320     -1.20622487
H       1.58500276      0.74521467      1.13343010
H       0.68477313     -0.74888583      1.39635958
H       0.44754677      2.39726985      0.04033722
H      -2.21791081     -1.78945073     -0.12139321
