16
b3lypvtz=-170486.84406137
C       3.05182079      0.10780437     -0.17525368
C       1.64483476     -0.48288615     -0.25354217
C       0.59059900      0.38247707      0.45359334
C      -0.79029350     -0.20427223      0.42101911
C      -1.83018472      0.37348360     -0.17239982
O      -3.10620351     -0.10633911     -0.24798340
H       3.77938662     -0.52729904     -0.68313987
H       3.09197557      1.09512628     -0.64109354
H       3.37638259      0.22017402      0.86181954
H       1.64244062     -1.48355281      0.18959471
H       1.35263755     -0.61290244     -1.29896872
H       0.90542227      0.52945843      1.49363905
H       0.57520942      1.37721728     -0.00173115
H      -0.92945396     -1.16839251      0.90674698
H      -1.75422433      1.33102375     -0.67304965
H      -3.15334716     -0.95701252      0.20320127
