13
b3lypvtz=-208088.28004036
C      -2.23477197     -0.75516950      0.08130344
C      -1.00197276     -0.06917746     -0.43258603
O      -0.75980598      1.26783088      0.04133588
C       0.14894840      0.22929554      0.42243373
C       1.53618913      0.37154239     -0.13648194
F       2.20869592     -0.84588293     -0.02605217
H      -2.34900973     -0.59552075      1.15334641
H      -2.17843515     -1.82900079     -0.10863692
H      -3.12502079     -0.37038779     -0.41925647
H      -0.80622934     -0.18713486     -1.49613216
H       0.09981810     -0.05844228      1.46996254
H       1.49884169      0.65558488     -1.18931163
H       2.10822047      1.11864866      0.41801932
