10
b3lypvtz=-209935.98215686
C      -2.14367042     -0.12881496     -0.23764059
N      -1.28450845      0.80571755     -0.14636592
N       0.02551907      0.50996772      0.04914303
N       0.46183401     -0.73680421      0.26133696
N       1.65216178     -0.94623594      0.50792175
O       2.41953044      0.26920734      0.53374298
H      -3.16768858      0.17863175     -0.40129725
H      -1.90631192     -1.18533417     -0.16153972
H       0.64432078      1.29293154      0.17868712
H       3.29881328     -0.05926662      0.74696442
