14
b3lypvtz=-193059.44021398
C       2.12231422      0.43397502      0.61108333
C       1.48651335     -0.38045526     -0.51533933
C       0.11068048     -0.94339873     -0.16241588
C      -0.97986345      0.09872100     -0.08444839
O      -0.90923965      1.23646016     -0.47290989
O      -2.11071489     -0.40725086      0.46767426
H       2.23917575     -0.16756553      1.51573424
H       3.11170817      0.79122447      0.32249955
H       1.51492171      1.30474176      0.85801217
H       2.13922559     -1.21703163     -0.77488828
H       1.39645924      0.23818623     -1.40963506
H       0.13007855     -1.48802206      0.78457295
H      -0.21620460     -1.67019165     -0.91252957
H      -2.76770349      0.30479007      0.45539490
