13
b3lypvtz=-177375.59346739
C       2.44596540     -0.10436615     -0.00646696
C       1.07502193     -0.69186919      0.00902705
C      -0.07439273      0.01005912     -0.00741845
N      -0.20824276      1.38530747     -0.07506160
N      -1.25302103     -0.77815152     -0.00744870
N      -2.30917120     -0.11188043      0.01668431
H       2.45169398      0.91377262     -0.39872357
H       2.88590199     -0.07632287      0.99698747
H       3.11918766     -0.70314056     -0.62279665
H       0.96420019     -1.76623019      0.04420190
H      -1.15711742      1.68344031      0.10753844
H       0.48944151      1.92557581      0.40759522
H      -3.08523351     -0.78304742      0.01402353
