12
b3lypvtz=-223182.9419208
C       2.74023786     -0.11895723     -0.12114642
C       1.30818409      0.30125305     -0.03948862
C       0.30088222     -0.49169187      0.30180899
C      -1.12450373     -0.05699008      0.37910024
F      -1.90493306     -0.87162776     -0.40857368
F      -1.29457693      1.22260885     -0.07068032
H       3.36008517      0.48234489      0.54929107
H       3.13093255      0.03863233     -1.12989677
H       2.87252604     -1.16932717      0.13755392
H       1.09054202      1.33543746     -0.28357625
H       0.46329766     -1.53307715      0.55846943
H      -1.54121089     -0.10508431      1.38900739
