11
b3lypvtz=-202356.03699532
C       1.53631458      0.38550577      0.11459705
C       0.42156820     -0.60312279     -0.07750898
O       0.59814586     -1.78486281     -0.25306727
C      -1.01820720     -0.08408893     -0.04944838
N      -2.04348865     -0.80097836     -0.19752940
O      -1.09690715      1.25035588      0.15399224
H       2.49189786     -0.12976051      0.06914210
H       1.48544340      1.16141817     -0.65168758
H       1.42444555      0.89545099      1.07335169
H      -1.76167304     -1.77044646     -0.33720459
H      -2.03753939      1.48032904      0.15536313
