15
b3lypvtz=-180561.30599167
C      -2.59292264     -0.22059779     -0.44625462
C      -1.46649625      0.31467340      0.44772697
C      -0.21467967     -0.50824153      0.36850172
C       0.99567383     -0.04190524      0.05409187
N       2.13845439     -0.81475002     -0.21744784
O       1.23814570      1.30095508     -0.07953261
H      -2.84538063     -1.25166045     -0.18780697
H      -3.49920565      0.37923781     -0.34032580
H      -2.29783756     -0.20667445     -1.49697524
H      -1.23690716      1.34568111      0.17668262
H      -1.82675719      0.34451850      1.48257675
H      -0.29746043     -1.56987953      0.57313651
H       2.91430711     -0.59653514      0.39762405
H       1.95077258     -1.80672168     -0.19871984
H       1.93745959      1.40380693     -0.73682659
