16
b3lypvtz=-147173.41498042
C       2.18125173     -0.95361050     -0.19582517
C       1.23917122     -0.25566079      0.42413346
C       0.00000049      0.30707679     -0.22573910
C       0.00000141      1.84705950     -0.14287237
C      -1.23917169     -0.25565924      0.42413206
C      -2.18125231     -0.95360788     -0.19582761
H       3.05266932     -1.32203049      0.32941471
H       2.11477237     -1.18435155     -1.25285611
H       1.34456404     -0.04926619      1.48689757
H       0.00000089      0.01456894     -1.27921654
H       0.88622900      2.25864039     -0.62734458
H       0.00000107      2.18094682      0.89731336
H      -0.88622513      2.25864152     -0.62734553
H      -1.34456550     -0.04926444      1.48689603
H      -3.05267095     -1.32202680      0.32941129
H      -2.11477200     -1.18434910     -1.25285846
