13
b3lypvtz=-179725.1725469048
C       0.74632166     -1.46016011     -0.19613407
C       0.54631278     -0.19952882      0.18477541
C       1.57502105      0.83269407      0.25059744
O       1.35893116      1.95619856      0.66658662
N      -0.79812358      0.26458069      0.49327097
H      -1.16955031     -0.23282124      1.29837923
H      -0.68768178      1.24929470      0.77261118
C      -1.76814153     -0.02199722     -0.69626061
H       1.73756421     -1.79140679     -0.47460571
H      -0.08302940     -2.14965604     -0.26321079
H       2.57188574      0.52872868     -0.11097569
H      -1.33052494      0.54583896     -1.52472987
H      -2.69898505      0.47823458     -0.40030411
