12
b3lypvtz=-189809.03276816357
C      -1.32005564     -0.60881921      0.45465662
C      -0.44750440     -0.09241743     -0.64283392
N      -0.96035579      0.81365302      0.39350834
C       1.01643446     -0.28157444     -0.65805790
N       1.77326398      0.42224700      0.13294468
O       3.02775104      0.38420562      0.27071636
H      -2.33402655     -0.89693590      0.20463518
H      -0.86906342     -1.15642418      1.27190491
H      -0.91171752     -0.05015468     -1.62341181
H      -1.72616109      1.37487951      0.04045733
H       1.50097429     -0.99915673     -1.30316319
H       1.25046065      1.09049742      0.71796498
