17
b3lypvtz=-157943.05536218864
C       1.94238729      0.61955504     -0.01837314
C       1.01062866     -0.05069303     -1.03640671
C      -0.21077931     -0.68090355     -0.42685418
C      -0.24853352     -1.77556274      0.32032819
N      -1.47783599      0.02417356     -0.68040198
H      -1.54710838      0.18994036     -1.68273603
H      -2.24546101     -0.62372661     -0.44513534
C      -1.47082211      1.40535310     -0.02893803
H       2.81886280      1.03059252     -0.52279262
H       2.28788460     -0.09553695      0.72984368
H       1.40664970      1.42463423      0.48129963
H       1.55779186     -0.82483996     -1.58215555
H       0.68934882      0.70682841     -1.75339391
H       0.65650897     -2.31502928      0.55944174
H      -1.17406471     -2.15824067      0.73154320
H      -2.34647924      1.91411857     -0.44360030
H      -1.64897842      1.20933699      1.03140188
