16
b3lypvtz=-170473.57910723
C       2.80972024     -0.48520549      0.28143587
C       1.59586282     -0.40393859     -0.24858525
C       0.76957974      0.84631051     -0.31663514
C      -0.60058570      0.70283037      0.33815941
O      -1.35712068     -0.24986194     -0.38665019
C      -2.63388112     -0.48084134      0.16660919
H       3.35908691     -1.41738708      0.30086089
H       3.30258138      0.37934737      0.71214370
H       1.13585637     -1.29185920     -0.66936341
H       0.60632880      1.12437550     -1.36307884
H       1.30044680      1.67402332      0.15983208
H      -0.49226547      0.38289579      1.38400323
H      -1.11910024      1.67202346      0.33884847
H      -2.56602070     -0.87140142      1.18987837
H      -3.23707157      0.43602604      0.18590190
H      -3.13269659     -1.21771429     -0.46054928
