11
b3lypvtz=-204940.6031808
C      -2.61799763     -0.12431605     -0.00003270
N      -1.26647410      0.38981728     -0.00007902
C      -0.30362261     -0.42435942     -0.00001276
C       1.09461542      0.08294125     -0.00008016
N       1.52249005      1.25452715      0.00009331
F       1.97207257     -0.94115553      0.00004561
H      -2.67427152     -1.21912253      0.00003236
H      -3.14107436      0.26416277      0.87589585
H      -3.14109063      0.26406005     -0.87599672
H      -0.42239743     -1.51298190     -0.00003060
H       0.72937122      1.89555094      0.00005983
