11
b3lypvtz=-225618.21019884
C      -1.75141949     -0.61502298      0.08463819
O      -0.44341953     -1.19398476     -0.01496153
C       0.57987376     -0.34644902     -0.04723099
N       0.42287991      0.92417100      0.00700705
O       1.72646901      1.52854415     -0.05095671
O       1.74286909     -0.99370032     -0.14061439
H      -2.43764334     -1.45645846      0.09552439
H      -1.84311646     -0.03309736      1.00116334
H      -1.94959020      0.03104691     -0.76998725
H       1.52124688      2.46567919     -0.00617444
H       2.43185035     -0.31072833     -0.15840767
