12
b3lypvtz=-166545.27101186
C       2.88153223      0.12035356     -0.00006375
N       1.75973614     -0.47847107     -0.00000646
C       0.60422275      0.29105553     -0.00001672
C      -0.60422272     -0.29105608     -0.00001493
N      -1.75973603      0.47847064     -0.00000557
C      -2.88153222     -0.12035379     -0.00005806
H       3.79584960     -0.46517942      0.00019860
H       2.97904332      1.21167855      0.00024132
H       0.67625956      1.37911285     -0.00006547
H      -0.67625964     -1.37911340     -0.00005950
H      -3.79584947      0.46517939      0.00018490
H      -2.97904354     -1.21167876      0.00022963
