15
b3lypvtz=-180555.18129212
C      -2.11167556     -0.22696419      0.09834186
C      -0.66675709     -0.69933631     -0.05608760
C       0.35048880      0.42800921      0.09711230
C       1.76520907     -0.08480314      0.01708179
N       2.55867168      0.00699788      0.99907221
O       0.12504552      1.35923215     -0.96969741
H      -2.80740652     -1.05454732     -0.04604457
H      -2.34640242      0.54724981     -0.63068122
H      -2.28506754      0.18407016      1.09516873
H      -0.52540774     -1.15763720     -1.03919284
H      -0.43849581     -1.46521339      0.68919278
H       0.22228935      0.91343881      1.07016369
H       2.03822456     -0.51440406     -0.95476200
H       3.47318291     -0.38477366      0.77305151
H       0.64810077      2.14868125     -0.79927621
