9
b3lypvtz=-201574.13618862
C       1.85364864     -0.74125106      0.10734373
N       1.04407375     -0.26054974     -0.72812279
C       0.09289347      0.70251252     -0.48529107
O       0.18052906      1.87468460     -0.76869793
C      -1.21678394      0.19030108      0.14411255
O      -1.29335831     -0.80847280      0.80298824
H       2.52371804     -1.53880346     -0.20387535
H       1.93396800     -0.39044068      1.13784234
H      -2.05556570      0.89457353     -0.00361072
