14
b3lypvtz=-195622.6034381
C       2.45476540     -0.53708321     -0.27151308
C       1.39051310     -0.11437941      0.39953661
C       0.05023680      0.20751644     -0.21522335
N      -0.35267258      1.60835458     -0.04249736
C      -1.01858955     -0.71188651      0.36328551
F      -2.22641374     -0.55772261     -0.30320909
H       3.40089670     -0.72559403      0.21868168
H       2.41798216     -0.70725782     -1.34150696
H       1.46704318      0.05284558      1.47208471
H       0.09894357      0.01203819     -1.28980344
H       0.35910577      2.22229955     -0.42078927
H      -0.44233689      1.83503212      0.94282748
H      -0.71135925     -1.75467274      0.26629598
H      -1.19094166     -0.48949314      1.42147660
