15
b3lypvtz=-180531.43420637
C      -2.53413965     -0.25343406     -0.01020336
N      -1.08828060     -0.40185220     -0.05744417
C      -0.37438198      0.86126585     -0.06280610
C       1.12279435      0.66653041     -0.05061654
C       1.78052898     -0.51048077     -0.61729856
O       1.62777984     -0.36528748      0.80638219
H      -2.89453348      0.35913529      0.83160047
H      -3.00004773     -1.23633847      0.05996361
H      -2.88765127      0.21451436     -0.93175328
H      -0.76254831     -0.95295125      0.72766934
H      -0.64424522      1.50895850      0.79050263
H      -0.64182277      1.41877496     -0.96723807
H       1.69199675      1.59196932     -0.00314139
H       2.80177453     -0.43171801     -0.97564212
H       1.17111953     -1.28634446     -1.06364966
