14
b3lypvtz=-146358.66721540265
C      -1.83373862     -0.16270401     -0.07815050
C      -0.40357292     -0.44302572     -0.50063158
C       0.56275615      0.75272377     -0.65922036
C       0.97324120      0.73109361      0.80649129
C       0.64134214     -0.73997085      0.59870014
C       1.75819660     -0.02846495     -0.14379834
H      -2.41044732      0.26788281     -0.90007205
H      -1.86165905      0.53847496      0.75858025
H      -2.34005719     -1.07980054      0.23182098
H      -0.36640189     -1.14695170     -1.33838259
H       0.57294758      1.60129729     -1.32967139
H       1.17134098      1.41706852      1.60803947
H       0.73825805     -1.54127994      1.31853004
H       2.79779427     -0.16634325     -0.37223538
