12
b3lypvtz=-187433.81544622
N       2.39780690     -0.45629908      0.20503427
C       1.62644848      0.63980369     -0.04127708
C       0.27614052      0.62220378     -0.14786931
N      -0.35266612     -0.62242745     -0.16234888
N      -1.59145155     -0.75938918     -0.06367617
N      -2.36806690      0.37948127      0.09989253
H       3.36722003     -0.42652856     -0.05567138
H       1.93336076     -1.34688616      0.10463670
H       2.15780532      1.58065544     -0.10621875
H      -0.25492135      1.54864159     -0.31896162
H      -1.95918326      1.09707445      0.69185692
H      -3.27965083      0.09419421      0.42385976
