14
b3lypvtz=-193011.09352066
C       1.70659154      0.42768679      0.16660393
C       0.60328347     -0.59237335      0.00915576
O      -0.05785877     -0.91153888      1.26681113
C      -1.33052691     -0.42979896      0.78228044
C      -0.73710771     -0.12730267     -0.60549802
O      -0.72895520      1.22114515     -1.02866524
H       2.47889584      0.02512569      0.82373284
H       2.15959987      0.65226532     -0.80074556
H       1.32971505      1.35557984      0.59285464
H       0.99267638     -1.50666050     -0.44850895
H      -2.10381976     -1.20136553      0.82567741
H      -1.66611537      0.46249317      1.31770716
H      -1.10141755     -0.78201255     -1.40011883
H      -1.54516088      1.40665649     -1.50118672
