13
b3lypvtz=-156460.53667618
C      -2.67286786     -0.62454451      0.19615479
N      -1.75597999     -0.15937764     -0.53166131
C      -0.86705230      0.84019096      0.06694884
C       0.52695537      0.40496689      0.04360072
C       1.67294630      0.04650723      0.03491329
C       3.06120587     -0.39153338      0.01773571
H      -3.35716565     -1.36185664     -0.21778231
H      -2.82853063     -0.32898891      1.24161904
H      -1.16248245      1.08728385      1.09762897
H      -0.96609211      1.75432730     -0.52656160
H       3.14936711     -1.38413491     -0.42864560
H       3.47239488     -0.44277978      1.02798119
H       3.68388545      0.29154855     -0.56356675
