16
b3lypvtz=-193778.27554045
C      -2.63954518      0.35085788      0.12150173
O      -1.72181572     -0.63860683     -0.29018752
C      -0.42721863     -0.51860369      0.27849222
C       0.42105250      0.58335980     -0.35678654
C       1.83281655      0.63124980      0.20308327
O       2.49180316     -0.59093557     -0.12781181
H      -3.60679490      0.08734674     -0.30371599
H      -2.73077694      0.38192077      1.21524888
H      -2.36861444      1.35262818     -0.23135909
H      -0.50817713     -0.35159008      1.36285199
H       0.05690686     -1.48149968      0.12577875
H      -0.03985233      1.56129406     -0.19695936
H       0.46818347      0.41738982     -1.43537306
H       1.79995868      0.76960530      1.29192232
H       2.36824028      1.48705179     -0.22369951
H       3.37632979     -0.57910730      0.24737973
