11
b3lypvtz=-199973.28588876
N      -1.04925004      1.41729923      0.03040348
C      -0.73308596      0.17877923      0.00162145
N      -1.52049414     -0.92361568     -0.04526325
C       0.75320311     -0.19337117      0.00180934
N       1.57066481      0.87200885     -0.03248127
O       1.10850896     -1.36135869      0.03213312
H      -2.05621545      1.56854053      0.02841467
H      -2.51269107     -0.86110177      0.08854012
H      -1.05858180     -1.81545221      0.03747937
H       2.56532072      0.73853918     -0.00206386
H       1.15395986      1.78952750     -0.02299818
