13
b3lypvtz=-179760.1546815
C      -0.71192477     -1.00193586      0.06048240
C       0.78450227     -0.82927172     -0.17569704
C       0.62072257      0.60243591     -0.53877099
C      -0.89119217      0.52489014     -0.29869387
O      -1.42158974      1.38755580      0.67167075
N       1.22036452      0.23031982      0.76630757
H      -0.99894799     -1.28436908      1.07302061
H      -1.20001915     -1.65546736     -0.66116540
H       1.49169953     -1.55196115     -0.55540442
H       1.16247178      1.22135492     -1.24006641
H      -1.47545311      0.66216046     -1.20655495
H      -0.80866901      1.35748356      1.41853640
H       2.22803528      0.33680454      0.68633536
