15
b3lypvtz=-180562.12994298
C      -0.97061658     -1.05213947     -0.22922164
C      -0.04379102      0.13436564      0.04328462
C       1.43283525     -0.29032560      0.00045891
C      -0.20896002      1.21833411     -1.02548964
O      -0.80123973      1.08792494     -2.06405201
N      -0.28168196      0.80598209      1.32894226
H      -2.01579705     -0.74117320     -0.19168631
H      -0.79344592     -1.47730312     -1.21689077
H      -0.81454608     -1.82937733      0.52083295
H       2.08925436      0.56607762      0.15906402
H       1.62862116     -1.01862644      0.79102915
H       1.67920980     -0.75302255     -0.95476429
H       0.28628859      2.17254469     -0.75271723
H       0.08825992      0.25448639      2.09402497
H      -1.27439069      0.92225225      1.49718502
