17
b3lypvtz=-158012.25163509
C       1.36860607     -1.63832425      0.11188116
N       0.86834378     -0.66053839     -0.50540552
C       0.25708230      0.41768530      0.26475061
C       1.07590050      1.69184418      0.04712786
C      -1.19808978      0.60713734     -0.18686873
C      -2.10081368     -0.59359294      0.08744683
H       1.83626072     -2.44518235     -0.44924704
H       1.36379637     -1.72951399      1.20610107
H       0.26136616      0.17218961      1.33924887
H       0.63376854      2.52692640      0.59294049
H       2.10149466      1.56004524      0.39379815
H       1.10738548      1.94633553     -1.01318742
H      -1.59458742      1.48888753      0.32390189
H      -1.19534073      0.83427039     -1.25606366
H      -1.75471352     -1.47908443     -0.44642893
H      -2.12787127     -0.83406037      1.15315213
H      -3.12470218     -0.39191981     -0.23096276
