10
b3lypvtz=-186658.22132308
C      -2.71443043      0.19385789      0.00002290
N      -1.66885981     -0.53041716     -0.00020110
N      -0.51793204      0.29473675     -0.00016828
N       0.51123839     -0.39496586     -0.00016592
C       1.68403552      0.41748883     -0.00011790
N       2.84136303     -0.08404255      0.00016602
H      -2.67045400      1.28277196      0.00030938
H      -3.67751838     -0.30318045      0.00013671
H       1.52994191      1.49604353     -0.00013692
H       2.77539882     -1.10515392      0.00023612
