13
b3lypvtz=-179782.43596787
C      -2.42818826      0.45181671      0.12609625
O      -1.64393212     -0.71627346     -0.09681746
C      -0.30883005     -0.57897714     -0.13653273
C       0.41604280      0.54447622     -0.03330342
C       1.88272867      0.55864555     -0.09664935
N       2.72037881     -0.36575806      0.16075717
H      -3.46192691      0.11963308      0.15594721
H      -2.16218429      0.92311040      1.07504752
H      -2.29605044      1.17052027     -0.68601655
H       0.15945176     -1.54343654     -0.29256338
H      -0.06863190      1.50825787      0.04635185
H       2.30705371      1.51501265     -0.41140127
H       2.25082621     -1.21200854      0.49011715
