12
b3lypvtz=-189840.94645046
C      -2.03502010     -0.98370377      0.02633141
C      -1.05880072     -0.05862297     -0.00828932
N      -1.26466739      1.30906926     -0.07281093
C       0.33555617     -0.50176116     -0.02426046
N       1.27952250      0.35215286      0.01540061
O       2.53496831     -0.26312230      0.00667169
H      -1.79171443     -2.03454631      0.02444909
H      -3.08091128     -0.71034890      0.04648487
H      -0.47647689      1.86940663      0.20961850
H      -2.15107654      1.64042429      0.26850986
H       0.53930073     -1.56868412     -0.06044907
H       3.14226962      0.48337450      0.02828773
