13
b3lypvtz=-203060.65896238
C       2.68972645     -0.37470383      0.00006170
O       1.57236116      0.48849426      0.00007003
C       0.34342003     -0.20616164     -0.00032202
C      -0.76036332      0.80376766     -0.00002761
N      -2.00488033      0.55795916      0.00013203
O      -2.24483717     -0.83264359     -0.00002417
H       2.70320485     -1.01549517     -0.89033354
H       2.70243162     -1.01643151      0.88980194
H       3.58082756      0.24993137      0.00074517
H       0.25252938     -0.85783727     -0.88118424
H       0.25237973     -0.85851369      0.88002010
H      -0.48909383      1.85310189      0.00007198
H      -3.20576513     -0.87878267      0.00019563
