10
b3lypvtz=-191475.81685641
C       2.21253101     -0.46889540     -0.66928426
C       1.14204494     -0.14521031     -0.23702331
C      -0.18666514      0.21450877      0.26948042
O      -0.42283423      1.59760674      0.27688038
C      -1.23584336     -0.51209227     -0.57685243
O      -2.10390575      0.09298559     -1.14711758
H       3.16884583     -0.73837628     -1.04380366
H      -0.28333128     -0.18122134      1.29202265
H      -1.15219570      1.75010839     -0.34478759
H      -1.13874632     -1.60941389     -0.63561463
