15
b3lypvtz=-203850.50717029
N      -2.52283702     -0.48233348      0.81641867
C      -1.28425678     -0.85002228      0.12618324
C      -0.25269411      0.25133757      0.30757314
O       0.92763621     -0.12063250     -0.38371837
C       1.97006502      0.82188270     -0.25676899
O       3.10340453      0.34924723     -0.90929313
H      -3.14170422     -1.28008748      0.88364929
H      -3.02400843      0.22843767      0.29618840
H      -0.89665482     -1.76503562      0.57709264
H      -1.40193745     -1.04564827     -0.94716765
H      -0.05457729      0.39886446      1.37638428
H      -0.64291779      1.20054053     -0.08850269
H       1.70252530      1.76580556     -0.74504688
H       2.15683590      1.01057306      0.81273672
H       3.36132096     -0.48292915     -0.49792868
