9
b3lypvtz=-222407.1197669896
C       1.11291761      0.22155325     -0.46269785
N       0.66601734     -0.73354231      0.24274175
O      -0.68257122     -0.74433523      0.60458887
N      -1.48990330      0.37588622      0.13368331
N      -2.63479897      0.26220508      0.50456892
O       2.41211914      0.23384959     -0.81262355
H       0.56085395      1.07027945     -0.83931762
H      -2.77633180     -0.59807142      1.06678451
H       2.83169724     -0.55504291     -0.43772833
