12
b3lypvtz=-218177.83922108
C      -0.69170840     -0.63215418      0.10729162
C       0.26210047      0.55094508      0.02260187
O      -0.10923966      1.68254910     -0.18429175
C       1.75051663      0.28952908      0.20019286
F       2.02478997     -1.05113282      0.44384697
N      -2.09720290     -0.31913438     -0.05760836
H      -0.52703108     -1.13314675      1.06583923
H      -0.37798245     -1.36715026     -0.64114501
H       2.11934338      0.88139864      1.04022500
H       2.27774703      0.59568282     -0.70562725
H      -2.23820192      0.17664146     -0.93085598
H      -2.39313107      0.32597220      0.66638241
