12
b3lypvtz=-213159.65727866
C      -2.53881353     -0.21460006      0.18395952
N      -1.29255099      0.36525181     -0.29472646
N      -0.22877524     -0.53697022     -0.13427460
C       0.93222396     -0.06338033     -0.01351098
O       1.23847351      1.25157118      0.04678830
O       2.03426304     -0.85156706      0.06979611
H      -2.76431918     -1.10455468     -0.40259361
H      -3.33654074      0.51199751      0.02726787
H      -2.51955230     -0.49898045      1.24420460
H      -1.09645588      1.24603096      0.17171134
H       2.19172976      1.34291320      0.16034774
H       1.72962960     -1.76562987      0.00342517
