16
b3lypvtz=-168096.25586977
C      -2.67647170     -0.35253491      0.00426365
C      -1.35578216      0.40679612     -0.00196675
N      -0.23422024     -0.51795384      0.01346189
C       0.94950250     -0.04569881      0.00433430
C       2.12973342     -0.97977154      0.00692083
N       1.27822795      1.29849107     -0.06036700
H      -2.74829645     -0.98333498      0.89091048
H      -3.52569610      0.33362768     -0.00412283
H      -2.74490022     -0.99980180     -0.87064336
H      -1.31210820      1.05590192     -0.88871449
H      -1.32322024      1.07685306      0.87235685
H       1.77298653     -2.00491867     -0.00534997
H       2.74616359     -0.82755525      0.89708812
H       2.76291208     -0.80758721     -0.86653835
H       2.21320903      1.56435198      0.19658866
H       0.57117219      1.97111816      0.18258496
