13
b3lypvtz=-179759.9314073553
C      -0.28521730     -0.01678608      1.10414486
C       0.76517780      0.72258148      0.29014061
C       1.45084308     -0.16834797     -0.65835859
N       0.11400117      0.32815813     -1.03058448
C      -0.85892213     -0.51615358     -0.24947968
O      -2.18258287     -0.18932710     -0.53730256
H       0.06658415     -0.75567233      1.82545808
H      -0.99627405      0.64785227      1.59240381
H       1.10079295      1.73649089      0.46579448
H       1.56810902     -1.22196360     -0.42450067
H       2.24403103      0.25057699     -1.26359750
H      -0.75553692     -1.58331059     -0.45183229
H      -2.23100594      0.76590149     -0.66228605
