12
b3lypvtz=-192240.2173777
C      -1.50426945      0.03113912     -0.11623223
C      -0.36975621     -0.33324687      0.80796954
O       0.56953534      0.69361324      1.06211196
C       1.47608686      0.64487765     -0.02934007
O       0.73168081      0.22145321     -1.16159012
C      -0.26364944     -0.64218673     -0.64705364
H      -1.63393751      1.07875951     -0.34795598
H      -2.40962975     -0.55954814     -0.05687871
H      -0.47399576     -1.07126868      1.59128950
H       1.87234846      1.64203253     -0.21219072
H       2.28499474     -0.06874929      0.18115529
H      -0.27960811     -1.63667555     -1.07118480
