11
b3lypvtz=-225609.05533135
O       2.60344773      0.42587348      0.05862113
C       1.28062815      0.25222219     -0.30079684
O       0.49998903      0.11410448      0.90631050
C      -0.81875085     -0.06523247      0.75195486
N      -1.37603707     -0.08819575     -0.38889071
O      -2.76959961     -0.29484605     -0.24530026
H       2.93821745     -0.39391920      0.43729484
H       1.10658147     -0.63401589     -0.91740522
H       0.95853952      1.14450307     -0.83532905
H      -1.35016934     -0.18416364      1.69107318
H      -3.07294647     -0.27633021     -1.15753244
