11
b3lypvtz=-202327.04462691
C      -2.16898182      0.42964687      0.00001709
N      -1.59356028     -0.70614820     -0.00003821
C      -0.22078303     -0.91395290      0.00001993
C       0.78999380     -0.02145358      0.00002288
O       2.10920770     -0.35050229      0.00003982
O       0.62892604      1.31174643     -0.00000292
H      -3.25609635      0.44138400     -0.00004222
H      -1.66050845      1.39281951      0.00013605
H       0.07009981     -1.95838693      0.00003555
H       2.20446677     -1.30939728      0.00005059
H       1.50237582      1.72332136     -0.00005558
