14
b3lypvtz=-146425.56996627
C      -0.64227179     -1.24149323      0.23106719
C       0.66120771     -1.25273901     -0.02393248
C       1.46649001     -0.01265666     -0.28681844
C       0.64227179      1.24149323     -0.23106719
C      -0.66120771      1.25273901      0.02393248
C      -1.46649001      0.01265663      0.28681844
H      -1.16062331     -2.17690724      0.41173511
H       1.19376083     -2.19723214     -0.04891993
H       1.96156173     -0.09018055     -1.26409211
H       2.29438385      0.05344202      0.43179221
H       1.16062326      2.17690729     -0.41173510
H      -1.19376078      2.19723219      0.04891992
H      -1.96156173      0.09018051      1.26409211
H      -2.29438384     -0.05344206     -0.43179221
