13
b3lypvtz=-177394.02709784
N      -2.83722312     -0.43052016     -0.02423384
C      -1.79797562      0.29014406      0.11715339
N      -0.47963773     -0.05040770     -0.06995677
C       0.58640039      0.85957220     -0.04635043
C       1.86676735      0.48000918     -0.01839617
N       2.28333512     -0.86461873      0.00059250
H      -2.60614566     -1.37755685     -0.33014249
H      -1.92121320      1.32310496      0.44233785
H      -0.28728783     -0.97079863     -0.43910994
H       0.31870220      1.90471639     -0.06832523
H       2.64221226      1.22972635     -0.07540545
H       1.77184840     -1.43683677      0.66059938
H       3.27250845     -0.97387628      0.15954520
