14
b3lypvtz=-169712.58113683
C      -3.13718910     -0.09464590     -0.00013476
C      -1.90144556      0.41465155      0.00002863
C      -0.67990146     -0.35845025     -0.00000186
C       0.53273269      0.20726467      0.00017601
O       1.67204900     -0.52467307      0.00026812
C       2.88412345      0.21890178     -0.00028480
H      -3.30977320     -1.16403042     -0.00029557
H      -4.00996449      0.54296468     -0.00011039
H      -1.78428999      1.49534025      0.00019436
H      -0.74959293     -1.44064358     -0.00015941
H       0.66030619      1.28680189      0.00032697
H       2.96254238      0.84561710     -0.89313141
H       3.69421213     -0.50578262      0.00022799
H       2.96257190      0.84690489      0.89165313
