11
b3lypvtz=-178974.9172437719
C      -0.11251168      0.75675691     -0.46078913
C      -1.13725557     -0.12070169      0.33471673
O      -0.47306550     -1.43211720      0.61431833
C       0.79194240     -1.14624694      0.27406054
N       1.63138456     -1.33056226     -0.63485183
C       1.20754143      0.17327334      0.02723857
H      -0.22452774      1.81397286     -0.22329728
H      -0.24554641      0.62365255     -1.53582638
H      -1.39698883      0.31932469      1.29646461
H      -2.03572867     -0.36252715     -0.22565101
H       1.99475601      0.70517491      0.53361687
