11
b3lypvtz=-202344.10387356
N       1.88149397     -0.59525641     -0.11256835
C       0.75010155      0.05263701      0.50101784
C       0.26021599      1.38301913     -0.09912546
O      -1.09798520      0.83835751     -0.22364371
C      -0.69702142     -0.40403989      0.20849882
O      -1.33736469     -1.40342222      0.25337687
H       1.67958009     -0.88055516     -1.06359366
H       2.14996734     -1.42425937      0.40171588
H       0.91644643      0.12097418      1.57609608
H       0.27038329      2.25788073      0.54644737
H       0.67250265      1.61569549     -1.07925268
