10
b3lypvtz=-189106.1125064
C      -2.06781673      0.03785090     -0.00000313
C      -0.58602523      0.09683942     -0.00006764
N       0.18349353      1.14227785      0.00022433
C       1.43446631      0.57823373      0.00002678
N       1.46188418     -0.72002455     -0.00019402
O       0.09515462     -1.05844974      0.00009764
H      -2.42963956     -0.49423031     -0.88065995
H      -2.42962742     -0.49425359      0.88064358
H      -2.46599312      1.04841282      0.00000931
H       2.34602543      1.15411347     -0.00011690
