14
b3lypvtz=-193029.08152526
C       0.96146802      1.26687741      0.51956430
C       0.44442459      0.09471804      0.16692161
C       0.95333457     -1.22394067      0.67864518
C      -0.72913035     -0.01028759     -0.78379003
O      -1.86743297     -0.57129478     -0.14462594
O      -1.02461490      1.25274648     -1.32818693
H       0.58135232      2.19358412      0.11603443
H       1.78737054      1.32336999      1.21745317
H       1.32519657     -1.84306507     -0.14336982
H       0.15658232     -1.79284499      1.16167609
H       1.76518542     -1.08322922      1.39059093
H      -0.49929972     -0.72857889     -1.57902102
H      -2.06104652     -0.02238080      0.62582013
H      -1.79328987      1.14412599     -1.89771208
