18
b3lypvtz=-168845.53996394
C      -2.25881278     -0.80408214     -0.16356870
C      -0.85055842     -0.68570207      0.42049293
C       0.02201405      0.38016020     -0.24450969
N      -0.48873350      1.72174638      0.06537748
C       1.47408977      0.30519326      0.24002782
N       2.11694797     -0.93911527     -0.18935243
H      -2.22652764     -1.01572348     -1.23526435
H      -2.81108585     -1.61484643      0.31428064
H      -2.84560641      0.10605607     -0.02000604
H      -0.91088347     -0.45358225      1.48797896
H      -0.33221752     -1.64065954      0.32597417
H       0.02907099      0.17665200     -1.32980252
H      -1.44692575      1.82032688     -0.24635458
H       0.04748316      2.42743695     -0.42703459
H       2.00128814      1.20862182     -0.10203121
H       1.47657164      0.33774177      1.33147858
H       2.31536631     -0.91479993     -1.18281742
H       3.00346631     -1.06498221      0.28213295
