13
b3lypvtz=-179777.422374252
C      -1.87846658     -0.25346381     -0.40365833
C      -0.42052005     -0.42762288     -0.18340354
N       0.21595967     -1.49561937      0.14179844
C       1.51465026     -0.74873298      0.22093752
C       0.77050159      0.51308352     -0.27781459
O       0.84129862      1.63054765      0.58592074
H      -2.08246207      0.08902276     -1.42168753
H      -2.40068883     -1.19392896     -0.23250710
H      -2.27640408      0.50341592      0.27713267
H       2.30300763     -1.15652180     -0.41337716
H       1.87186356     -0.65773055      1.24562501
H       1.02337173      0.78790316     -1.30754119
H       0.51788855      2.40964735      0.12461463
