14
b3lypvtz=-195621.99373735
N      -0.32170180      1.59619261      0.05169972
C      -0.28826377      0.16139622     -0.11747750
C       1.04558283     -0.34607783     -0.58952390
F       2.01002955     -0.21992369      0.41069769
C      -1.04349749     -0.69753887      0.85047522
C      -1.51303219     -0.60614136     -0.58128074
H      -0.97009647      1.87938352      0.77268302
H      -0.58145590      2.06497698     -0.80760943
H       1.39258597      0.22846587     -1.45221878
H       0.98938027     -1.40310714     -0.85991642
H      -1.63086254     -0.19999439      1.61069403
H      -0.57739204     -1.61453815      1.18316875
H      -2.39810760     -0.01758039     -0.78044534
H      -1.39195481     -1.47074039     -1.22062633
