11
b3lypvtz=-179018.3995715
C       2.65891925      0.09828591      0.00028100
C       1.54823097     -0.37733589      0.00150714
C       0.22981842     -0.87215467      0.00926951
C      -0.82498747     -0.01560195     -0.00160886
N      -2.14485964     -0.37727704     -0.06660319
O      -0.68220352      1.32503018      0.00162791
H       3.64399988      0.49166164     -0.00436576
H       0.05352432     -1.93847109      0.01129713
H      -2.79523925      0.30871908      0.28119906
H      -2.35982747     -1.32552007      0.18987861
H       0.26708150      1.52180990      0.00726245
