12
b3lypvtz=-189855.99817508
C      -1.24853686      0.43655627     -0.06172563
C      -0.36707724     -0.84339699     -0.07097742
C       0.79451336      0.10099645     -0.38031189
N       2.03875349     -0.10840711     -0.33449256
N      -0.07215132      1.15889473     -0.59414628
O      -0.27621454     -1.52413352      1.15560712
H      -2.11646043      0.44968783     -0.71963861
H      -1.52855253      0.71931719      0.95331976
H      -0.60742888     -1.52363469     -0.89299566
H       2.59294583      0.73246590     -0.48755936
H       0.13549789      2.14206533     -0.50060966
H       0.65471122     -1.74041140      1.29022262
