15
b3lypvtz=-157232.35646161
C       2.01635069     -0.41573718     -0.43887370
C       1.34998551      0.14830675      0.56675679
C       0.04785620      0.83614495      0.51307358
C      -0.74928057      1.00344575     -0.76217205
C      -1.26256148      0.04858465      0.25689875
N      -1.31930678     -1.35385733     -0.03527618
H       2.95131633     -0.93203053     -0.26816633
H       1.67371597     -0.36592761     -1.46496471
H       1.77928939      0.07673871      1.56264293
H      -0.05875105      1.63374328      1.23880765
H      -1.26781519      1.93957403     -0.91752860
H      -0.33897091      0.57782593     -1.66891835
H      -2.10529968      0.37596742      0.85258494
H      -0.53260130     -1.64013022     -0.60631403
H      -1.27195014     -1.89865861      0.81875831
