13
b3lypvtz=-179779.60404899
N      -2.21425945     -0.32074144      0.02496461
C      -1.01867290     -0.72746934     -0.05562502
C       0.21054390      0.10634430     -0.00534590
O      -0.00106910      1.48969770      0.08859106
C       1.39628112     -0.40940750      0.76586827
C       1.44628374     -0.37886272     -0.73445600
H      -2.22507892      0.69427096      0.15741899
H      -0.84443564     -1.79978029     -0.17739650
H      -0.25927803      1.81871950     -0.78003982
H       1.95716114      0.34192424      1.30241203
H       1.30342516     -1.36277170      1.26670812
H       2.05276074      0.38640423     -1.19781637
H       1.38707624     -1.31205794     -1.27807747
