14
b3lypvtz=-169705.63853517
C       2.38158417      0.27384175     -0.32264592
C       1.51570082     -0.66065969      0.04886055
C       0.12755631     -0.39187524      0.48974109
O      -0.31562472      0.96845369      0.50367782
C      -0.93017102      0.07152357     -0.42967500
C      -2.38580491     -0.23284243     -0.21966895
H       2.10827096      1.32070498     -0.31021292
H       3.38312379      0.01817363     -0.64020558
H       1.80639223     -1.70696370      0.05374749
H      -0.20251042     -0.97080248      1.35083856
H      -0.62458106      0.24944976     -1.45819961
H      -3.00283609      0.60534012     -0.54959535
H      -2.59588054     -0.41713647      0.83389771
H      -2.68014553     -1.11293450     -0.79556990
