10
b3lypvtz=-165794.78496095
C       2.75264132     -0.40819957     -0.00000073
C       1.65581408      0.34855770     -0.00000057
N       0.39388371     -0.23769962     -0.00000005
C      -0.62392064      0.53050320      0.00000004
C      -1.95046942     -0.00940043      0.00000022
N      -3.04004677     -0.38561111      0.00000045
H       3.73700634      0.03689271     -0.00000088
H       2.67287252     -1.48634129     -0.00000069
H       1.71995442      1.43737752     -0.00000082
H      -0.55931756      1.62262190      0.00000003
