19
b3lypvtz=-158780.34979988
C       1.56184796     -1.17461472      0.04260113
C       0.69462654      0.03529598     -0.32322632
C       1.42936581      1.32722846      0.05768802
C      -0.71740878     -0.05214760      0.31540862
C      -1.60748648      1.13610623     -0.05156813
N      -1.46396933     -1.27806380     -0.00145699
H       2.54801003     -1.09774538     -0.41838962
H       1.12249764     -2.11546170     -0.28991376
H       1.70934040     -1.23468853      1.12498893
H       0.55137036      0.03291147     -1.41169985
H       0.92282985      2.21796375     -0.31142913
H       2.44048731      1.33193920     -0.35339049
H       1.51792513      1.41781075      1.14415071
H      -0.58191934     -0.05147573      1.40353582
H      -1.20237392      2.08193986      0.30417720
H      -2.59649242      0.99936313      0.38375111
H      -1.72548305      1.20945984     -1.13704494
H      -1.60334494     -1.35663422     -1.00392162
H      -0.95738176     -2.10394000      0.29005132
