12
b3lypvtz=-166566.97360272
C       2.11734829     -0.01999389     -0.00000415
C       0.78483181      0.00193475      0.00000148
C      -0.17542717      1.18766305      0.00000128
N      -1.53759436      0.61973677     -0.00000693
C      -1.38386922     -0.64386985     -0.00000506
N      -0.07766892     -1.09670769      0.00000969
H       2.67681584     -0.94534976     -0.00000227
H       2.67889783      0.90187972     -0.00001081
H      -0.03952727      1.82208261      0.87855540
H      -0.03951849      1.82209148     -0.87854487
H      -2.19872984     -1.35722288     -0.00000600
H       0.20888448     -2.05874432     -0.00001577
