9
b3lypvtz=-199148.58020728
N       2.53714919      0.45100603     -0.18949677
N       1.70873517     -0.35438820      0.26632377
C       0.37751030      0.06212166     -0.05180681
N      -0.58345383     -0.65704555      0.32540234
C      -1.91373195     -0.28725163      0.10556441
O      -2.46325167      0.63766508      0.64195872
H       3.46959163      0.10301767      0.07430041
H       0.29314670      0.99630742     -0.61514796
H      -2.43403254     -0.99835649     -0.55772312
