12
b3lypvtz=-166550.83675734
C       2.42606916     -0.14748141      0.20611417
C       1.24271819     -0.60671214     -0.19041515
C      -0.02804030      0.14729548     -0.09987440
N      -0.16490534      1.41325811     -0.12969179
C      -1.27886183     -0.68258488      0.03714456
N      -2.44904689     -0.22028841      0.15165295
H       3.32187001     -0.74658598      0.11890727
H       2.53947988      0.83584803      0.64717395
H       1.16728430     -1.61805609     -0.57705298
H       0.72792537      1.88816376     -0.25717058
H      -1.14185132     -1.76513649      0.03889241
H      -2.40291424      0.80484202      0.13190760
