18
b3lypvtz=-147948.41998511
C       1.52258366     -1.24662289      0.00001652
C       0.67141948      0.00000301      0.00000059
C       1.52259593      1.24662106     -0.00001479
C      -0.67142137      0.00000331      0.00000027
C      -1.52258418     -1.24662239     -0.00001063
C      -1.52259532      1.24662195      0.00001066
H       2.17991608     -1.25801012     -0.87531768
H       0.95814148     -2.17388524      0.00022187
H       2.18018189     -1.25779322      0.87515252
H       2.18019689      1.25778590     -0.87514872
H       0.95816421      2.17388928     -0.00022271
H       2.17992694      1.25800495      0.87532049
H      -2.17998289     -1.25796046      0.87527376
H      -0.95814240     -2.17388484     -0.00012107
H      -2.18011589     -1.25784251     -0.87519597
H      -0.95816315      2.17388975      0.00012434
H      -2.18013014      1.25783679      0.87519365
H      -2.17999221      1.25795768     -0.87527509
