10
b3lypvtz=-186706.39932931
N       1.11760136      0.12175317     -0.16607531
C       0.37538994     -0.68102485     -1.02058861
N       0.61876149     -1.98111980     -1.16336091
N      -0.24775338     -2.34866553     -2.11239963
H      -0.29276952     -3.29542025     -2.44518643
N      -1.03209557     -1.40339542     -2.58591894
C      -0.65822746     -0.31931154     -1.91068873
H       0.58945885      0.86076794      0.27104942
H       1.64110427     -0.40963982      0.51362231
H      -1.12116997      0.63635610     -2.08435316
