9
b3lypvtz=-175894.67455404
C       1.13055180     -0.46036624      0.41452162
N       0.11629745     -1.31958413      0.33596659
C      -1.02080192     -0.78502272     -0.10492290
N      -1.19791281      0.48780255     -0.45374710
C      -0.10975678      1.24539021     -0.33081789
N       1.08161749      0.83178460      0.09659438
H       2.07997285     -0.84699250      0.76857388
H      -1.87804405     -1.44426018     -0.18714386
H      -0.20192401      2.29124842     -0.60272165
