14
b3lypvtz=-167298.63215431
N       2.41698662      0.23481349     -0.40088148
C       1.30811338     -0.56914852     -0.11502648
C       0.03608385     -0.24101888     -0.30579651
C      -0.69032268      0.97866464     -0.83333681
N      -1.92371005      0.14648821     -0.95506750
C      -1.28263679     -0.97714380     -0.20531137
H       3.21371344      0.07603968      0.19582482
H       2.21596533      1.22043079     -0.48057956
H       1.56207065     -1.56550997      0.22983739
H      -0.76733450      1.80422862     -0.11199425
H      -0.34756798      1.39122070     -1.78774976
H      -2.72845463      0.54153056     -0.48591181
H      -1.65155113     -1.09926211      0.82116093
H      -1.36125553     -1.94123340     -0.71526759
