13
b3lypvtz=-179774.92256476
N       2.81632264     -0.20505974     -0.01962439
C       1.55157713      0.35410504     -0.11496979
C       0.38400151     -0.28145290      0.03316375
C      -0.90723039      0.38062267     -0.19150582
C      -2.13816909     -0.35515641     -0.50692365
O      -1.94227016      0.17729233      0.80281589
H       3.54980046      0.42190240      0.26799822
H       2.86828896     -1.09631407      0.44948491
H       1.55922059      1.40081159     -0.40109997
H       0.35842048     -1.32445212      0.33295020
H      -0.84600278      1.40915307     -0.53978854
H      -2.10275877     -1.43880136     -0.57862661
H      -2.91814259      0.12018650     -1.09545317
