15
b3lypvtz=-180548.35034322
C       2.41290841     -0.43090407      0.01533696
C       1.14760319     -0.30807750     -0.36394121
C       0.08180802      0.36911565      0.44979693
N      -0.42171448      1.54523594     -0.29050891
C      -1.12851182     -0.55191913      0.68313158
O      -1.79074911     -0.85945782     -0.52803358
H       3.14342516     -0.93805411     -0.60131997
H       2.76497311     -0.03480659      0.96130960
H       0.81919562     -0.71632421     -1.31378537
H       0.50384357      0.63197185      1.42869314
H       0.34628396      2.10253722     -0.64302399
H      -0.97200674      2.13978291      0.31975367
H      -0.80625644     -1.49195359      1.13195907
H      -1.81254407     -0.06023026      1.39083243
H      -1.80152139     -0.03171631     -1.03031434
