15
b3lypvtz=-157225.28533973
C       2.43234079      0.00000019      0.08723251
C       1.11298501      0.00000017      0.04468825
C       0.03451674     -1.06044908     -0.03245881
N      -0.92310836      0.00000004     -0.43344287
C      -2.23234912     -0.00000006      0.17751155
C       0.03451658      1.06044929     -0.03245877
H       2.99767175     -0.92349161      0.10505504
H       2.99767176      0.92349200      0.10505425
H       0.15842462     -1.86638573     -0.75914794
H      -0.19116660     -1.50112612      0.95069301
H      -2.19575731      0.00000007      1.28136275
H      -2.79075006     -0.88121242     -0.14334146
H      -2.79075036      0.88121205     -0.14334164
H      -0.19116682      1.50112630      0.95069304
H       0.15842436      1.86638595     -0.75914791
