12
b3lypvtz=-192250.14972943
C      -2.72043128     -0.49033703      0.00000035
C      -1.68796746      0.34046962      0.00001117
O      -0.39844394     -0.10031220     -0.00001379
C       0.61842151      0.83391707     -0.00000780
C       1.88035113      0.41637990      0.00000156
O       2.27590808     -0.88582985      0.00000914
H      -2.58808121     -1.56276556     -0.00002902
H      -3.72290191     -0.09222585      0.00002153
H      -1.80199259      1.41923467      0.00004086
H       0.34174812      1.87761443     -0.00001470
H       2.70252225      1.11478258      0.00000284
H       1.48776930     -1.44358378      0.00000785
