13
b3lypvtz=-179803.94514148
C       0.20411843      0.86650553     -0.13482067
C      -1.23052879      0.35628965     -0.36337631
C      -1.75768953     -0.38399611      0.77989430
N      -2.15033285     -0.96400511      1.69299262
C       1.22214186     -0.25134659      0.01078429
O       1.22753456     -0.99796582     -1.20508039
H       0.48062943      1.48634589     -0.98971855
H       0.23796563      1.49861212      0.75423202
H      -1.24870133     -0.29877474     -1.23541308
H      -1.90154485      1.19276132     -0.56694402
H       0.95983411     -0.89007110      0.86122357
H       2.20931698      0.18222255      0.20585669
H       1.74725634     -1.79657758     -1.08053375
