14
b3lypvtz=-169715.76293617
C       2.95092653     -0.39239774     -0.07656947
C       1.77597364     -0.09573856      0.46403680
C       0.69702652      0.71857862     -0.19988120
C      -0.58255826     -0.05375226     -0.38345621
C      -1.73523468      0.28027637      0.18891127
O      -2.92730797     -0.37198147      0.07654450
H       3.68443198     -0.98893545      0.44987045
H       3.22386767     -0.04494855     -1.06665485
H       1.53597349     -0.46834718      1.45601342
H       1.06665428      1.07663363     -1.16582438
H       0.48905695      1.60674317      0.40577726
H      -0.53383715     -0.94083428     -1.01010998
H      -1.83534232      1.15011952      0.82664428
H      -2.81733769     -1.14229581     -0.49284390
