16
b3lypvtz=-168082.83790999
N      -1.88887789     -0.12408241     -0.63652191
C      -0.91219801      0.04056719      0.44386033
C       0.04112627     -1.15924382      0.45151359
N       1.04505430     -0.74837106     -0.53255969
C       1.41418217      0.61962080     -0.15118294
C       0.06951323      1.24481376      0.28722273
H      -2.45705660      0.71030905     -0.72985841
H      -1.39158279     -0.23991417     -1.51384040
H      -1.46736082      0.10754700      1.37978532
H       0.46084056     -1.29880492      1.46095583
H      -0.46081702     -2.07787302      0.15136249
H       1.84213016     -1.37040063     -0.56619839
H       1.87475211      1.14217230     -0.99036442
H       2.12630419      0.64369778      0.68716503
H      -0.31502648      1.94180423     -0.45715811
H       0.18194561      1.79562393      1.22157896
