12
b3lypvtz=-194878.04058089
C      -2.70934647     -0.14898114      0.00015633
C      -1.28271563      0.28647684     -0.00005548
C      -0.23390131     -0.53730424      0.00013798
C       1.16080861     -0.09933154     -0.00004568
N       2.21942544     -0.77398871      0.00016144
F       1.29305436      1.24645855     -0.00038655
H      -3.23244536      0.24614206      0.87529489
H      -3.23255013      0.24557304     -0.87517573
H      -2.80692121     -1.23424745      0.00050825
H      -1.09761047      1.35472211     -0.00039240
H      -0.37914023     -1.61166659      0.00045943
H       2.01126640     -1.76872193      0.00042851
