9
b3lypvtz=-201573.92375156
O       2.76881827      0.37899314     -0.36985075
C       1.79720203     -0.32772108     -0.28404567
C       0.42226958      0.22799454     -0.10786685
N      -0.55509924     -0.58297018     -0.02444477
C      -1.86056216      0.00522579      0.14426021
O      -2.09873338      1.17858400      0.21082767
H       1.84630781     -1.43011054     -0.32849124
H       0.32058394      1.31447118     -0.05862486
H      -2.64068684     -0.76446685      0.20743625
