14
b3lypvtz=-190616.29565037
C       2.56799088     -0.29048257      0.17056184
N       1.32156787      0.31419952     -0.26673632
N       0.24448493     -0.54125001     -0.13490705
C      -0.91178672     -0.03596486     -0.01218789
C      -2.14277465     -0.87738752      0.05689031
O      -1.07572164      1.33296688      0.04861958
H       2.58318904     -0.55469890      1.23595074
H       3.38072313      0.40843284     -0.02911070
H       2.74323108     -1.19772060     -0.40630703
H       1.15414975      1.22501617      0.14786397
H      -2.82040755     -0.65240353     -0.77258631
H      -1.86715239     -1.92689296      0.00660223
H      -2.68992250     -0.70278727      0.98859352
H      -2.00209624      1.54391682      0.19534210
