9
b3lypvtz=-201588.30195771
C       0.01541698      1.10643082      0.23002318
C       0.69222441     -0.02901769     -0.06566002
N      -0.19040191     -1.07719744     -0.20896449
C      -1.35117888     -0.54645582      0.00213282
O      -1.32253075      0.76736260      0.27422605
O       2.01997932     -0.19534336     -0.21481419
H       0.27937918      2.12747113      0.42084504
H      -2.31372252     -1.02788075     -0.01548026
H       2.17083418     -1.12536946     -0.42230813
