10
b3lypvtz=-189096.74959442
C       2.57725224      0.44009893      0.00021845
N       1.68926602     -0.47035276      0.00122989
C       0.36663377     -0.02005974     -0.00003661
N      -0.59290135     -0.85682167      0.00099466
C      -1.90410063     -0.29723384      0.00027056
O      -2.19075026      0.87278502      0.00313139
H       3.62549866      0.15631288      0.00080276
H       2.34326471      1.51081299     -0.00185734
H       0.19515683      1.06486191     -0.00190870
H      -2.67150998     -1.08349372     -0.00306904
