12
b3lypvtz=-187453.95807363
N       2.53869836     -0.60773559     -0.97716166
C       1.22689211     -0.36750389     -0.72735044
N       0.82503344      0.71367555     -0.17600887
C      -0.50672478      0.80986308      0.20661231
N      -1.20969285     -0.18381886      0.58771189
N      -2.50466009      0.08185942      1.02288094
H       2.79716438     -1.31935700     -1.63573458
H       3.19228362      0.14133752     -0.81717706
H       0.54983984     -1.17735560     -1.00708851
H      -0.90142402      1.82938808      0.20863742
H      -3.05237367     -0.76087748      0.93176949
H      -2.95503634      0.84052477      0.51600906
