11
b3lypvtz=-202314.13460467075
C      -0.26651881     -0.59620481     -0.28138736
N      -1.64970348     -0.27863313      0.13076987
H      -1.67106211     -0.07969497      1.13831332
H      -2.31446823     -1.01166211     -0.09971257
H      -1.93869236      0.61211653     -0.29131943
C       0.56587126      0.43997059      0.06643541
O       0.14225429      1.47933582      0.64985055
C       2.03989195      0.33558397     -0.25867078
O       2.56883305     -0.59749643     -0.81069388
H      -0.08377919     -1.53270429     -0.76984310
H       2.60737364      1.22938885      0.07021375
