15
b3lypvtz=-180527.4218355
C       2.30405929      0.19370900     -0.04849556
O       1.12193390     -0.51932698     -0.35138775
C       0.04034215     -0.19279019      0.48861489
C      -1.22883140     -0.97148259      0.09866136
N      -1.81505732      0.26495321     -0.47804402
C      -0.74419983      1.09768257      0.12394084
H       3.07160705     -0.14571624     -0.74152349
H       2.63673821     -0.00354756      0.97873886
H       2.17406109      1.27544824     -0.16961601
H       0.34611189     -0.26882135      1.53784111
H      -1.76350136     -1.38160855      0.96065130
H      -1.06115231     -1.76561194     -0.63040426
H      -2.75005773      0.48157221     -0.16039773
H      -0.25140789      1.76293152     -0.58846962
H      -1.04633074      1.67801262      1.00163108
