14
b3lypvtz=-146423.2619676
C       1.99710009      0.00000006     -0.37494094
C       0.69507871     -0.00000018      0.44149039
C      -0.21107073      1.17395840      0.17541921
C      -1.43146981      0.73353045     -0.16913335
C      -1.43146963     -0.73353096     -0.16913379
C      -0.21107055     -1.17395881      0.17541885
H       2.59764993     -0.88220895     -0.14815263
H       1.78041010      0.00000027     -1.44369742
H       2.59764991      0.88220900     -0.14815228
H       0.96369730     -0.00000031      1.50792913
H       0.10561151      2.20307312      0.26115714
H      -2.28820100      1.34630864     -0.41094999
H      -2.28820080     -1.34630922     -0.41095036
H       0.10561197     -2.20307351      0.26115605
