17
b3lypvtz=-158007.27702236
C       2.26870510     -0.56656090      0.32031995
C       1.06408322     -0.71272608     -0.24997197
N       0.08906945      0.24376553     -0.42432413
C       0.30682922      1.56431583      0.12351559
C      -1.28653427     -0.18988269     -0.62282501
C      -2.05550996     -0.51312230      0.66193228
H       2.95850437     -1.39635921      0.32229075
H       2.60156441      0.35616227      0.77185483
H       0.78986212     -1.67663196     -0.66619126
H      -0.49083178      2.22880486     -0.20708818
H       0.33689193      1.57668140      1.22147908
H       1.25670328      1.96278475     -0.23797055
H      -1.81117776      0.59167455     -1.17875506
H      -1.26454264     -1.07089162     -1.26780032
H      -3.06951396     -0.84283170      0.42643941
H      -1.56038245     -1.30728709      1.22274087
H      -2.13194530      0.36073334      1.31084171
