17
b3lypvtz=-157996.02114647
C       1.93576585      0.15497549     -0.51144590
N       0.72680384     -0.62485497     -0.30140135
C       0.24433196     -0.78779878      1.06593260
C      -0.53509310      0.01987823      0.08396058
C      -1.75423790     -0.59218795     -0.57276939
C      -0.62409608      1.52196746      0.26542586
H       2.79343401     -0.51782167     -0.45944976
H       2.09758230      0.95987612      0.21682294
H       1.91658536      0.59430244     -1.51025606
H      -0.07835043     -1.78496574      1.34545236
H       0.76424374     -0.24583963      1.85201432
H      -1.61404249     -1.66272904     -0.71495803
H      -2.64828582     -0.43262953      0.03520730
H      -1.93080194     -0.14202390     -1.55309691
H      -0.70443463      2.02549824     -0.70165652
H       0.23181815      1.93647110      0.79446556
H      -1.51787183      1.77415011      0.83966042
