13
b3lypvtz=-179777.83835656
C       0.65440415      1.18570651     -0.17795931
N       1.39000154      0.00000031      0.29881227
C       0.65440449     -1.18570605     -0.17795944
C      -0.78001282     -0.73101646     -0.36786749
O      -1.28986366     -0.00000010      0.75917130
C      -0.78001302      0.73101653     -0.36786741
H       0.75915510      2.00700317      0.53172114
H       1.04927643      1.52488693     -1.14203789
H       1.35978274      0.00000025      1.30872773
H       0.75915567     -2.00700276      0.53172092
H       1.04927687     -1.52488626     -1.14203805
H      -1.50158706     -1.32848713     -0.91287646
H      -1.50158744      1.32848705     -0.91287631
