13
b3lypvtz=-179793.73792178
N       2.39808066     -0.89581017      0.05242765
C       1.67381281      0.06328017     -0.34259347
C       0.65962695      0.85455233      0.44238144
C      -0.73625230      0.89437430     -0.21404746
C      -1.43623032     -0.44269486     -0.20210254
O      -2.56079756     -0.61329576      0.19300846
H       2.21264142     -1.11742088      1.03385440
H       1.79627838      0.37672846     -1.38445352
H       1.02055578      1.88546307      0.51361364
H       0.59321467      0.46838786      1.46249121
H      -0.62990481      1.20042910     -1.26183768
H      -1.38023708      1.62172467      0.27918036
H      -0.84236760     -1.29551728     -0.59178049
