12
b3lypvtz=-213159.92036828
C       2.10639879     -0.64300097     -0.00001414
O       1.28624017      0.53416941     -0.00000277
C      -0.02731088      0.34276974     -0.00001057
O      -0.68720209      1.49675161     -0.00000313
N      -0.55903241     -0.82697380     -0.00002454
N      -2.00960048     -0.68315132     -0.00003069
H       1.91296670     -1.24504689      0.88654264
H       3.12928762     -0.27770194     -0.00000893
H       1.91296899     -1.24502790     -0.88658432
H      -1.62606614      1.20005533     -0.00001632
H      -2.34457466     -1.19969357      0.80735511
H      -2.34456761     -1.19970270     -0.80741335
