15
b3lypvtz=-208865.18958023
C       0.12871258      0.95201923      0.27700242
C      -0.78581812      0.37355397     -0.80954689
C      -1.50157852     -0.90219144     -0.42002999
F      -2.29902300     -0.69009577      0.71334867
C       1.30785232      0.06860620      0.65134782
O       2.08472711     -0.17248244     -0.52327837
H      -0.45336862      1.14663797      1.18049090
H       0.51554736      1.91385295     -0.06711455
H      -0.20017961      0.16323646     -1.70757500
H      -1.53380881      1.12145511     -1.08304426
H      -0.80564467     -1.70708722     -0.17591925
H      -2.16153971     -1.24219860     -1.22034358
H       0.95909077     -0.87684303      1.08323983
H       1.90841484      0.57516521      1.41531057
H       2.83661606     -0.72362861     -0.29022529
