10
b3lypvtz=-191474.95395558
C      -1.04310969     -0.17995408     -0.10790000
C       0.23684438     -0.89228997      0.34102073
C       1.09967138      0.28925018      0.08576082
C      -0.14209428      1.07366033     -0.32008744
O      -0.36798864      2.22652299     -0.52656917
O       1.11520322     -0.87146696     -0.77540408
H      -1.77155922      0.01369052      0.68079984
H      -1.53331145     -0.60556978     -0.98130394
H       0.36957853     -1.66297818      1.08549036
H       2.03676577      0.60913494      0.51819290
