16
b3lypvtz=-168086.66590603
C       1.82521719     -0.76984943     -0.54001304
C       0.83001114     -0.02678148     -0.04107578
N       0.98962140      1.00961095      0.87005807
C      -0.62447878     -0.31558067     -0.37628442
C      -1.36552481     -0.93960546      0.80971792
N      -1.29051985      0.94829258     -0.74387613
H       1.61496521     -1.59892855     -1.19880456
H       2.86059495     -0.58820191     -0.28176306
H       1.92352168      1.37857459      0.95104467
H       0.28376070      1.72644434      0.77283856
H      -0.62480944     -1.03869516     -1.19896560
H      -0.88744983     -1.87184083      1.10800175
H      -1.36686175     -0.26290651      1.66350312
H      -2.40105869     -1.16034262      0.53899039
H      -0.96237510      1.27050808     -1.64742997
H      -2.29105002      0.81053307     -0.82164492
