14
b3lypvtz=-169710.18074366913
C       2.24107009      0.68837499     -0.53098449
C       1.19790427     -0.38776532     -0.57702635
C      -0.09610959     -0.18663284     -0.38112945
C      -1.36849546     -0.99982672     -0.35494176
C      -2.03356784      0.35587278     -0.04852491
O      -0.73605868      1.01878734     -0.10230986
H       2.77471667      0.76786995     -1.48220588
H       2.99160507      0.48377871      0.23762868
H       1.79533500      1.65838718     -0.31460281
H       1.50829846     -1.40503084     -0.78351440
H      -1.43275269     -1.74303415      0.43809057
H      -1.65132175     -1.45715994     -1.30162081
H      -2.70513575      0.74716971     -0.81257910
H      -2.48548779      0.45920916      0.93786456
