17
b3lypvtz=-181311.00451819
C       2.13536754     -0.82753409     -0.23176868
C       0.83093040     -0.56777827      0.51370151
N      -0.06022016      0.36566452     -0.18246882
C       0.38672062      1.74841109     -0.10855863
C      -1.44261563      0.21254393      0.22682065
O      -1.99018926     -1.00831799     -0.22654438
H       2.72746130     -1.57504381      0.29892893
H       1.93272469     -1.19967301     -1.23679822
H       2.74863093      0.06992313     -0.32062916
H       1.04802766     -0.20721159      1.53389657
H       0.28770632     -1.50650898      0.61561238
H       0.43175784      2.13452473      0.92379563
H       1.38088741      1.84631602     -0.54172320
H      -0.28766794      2.38644870     -0.68065248
H      -1.56966203      0.19168837      1.31945832
H      -2.00058303      1.07006109     -0.16466999
H      -1.81254566     -1.05766884     -1.17320741
