10
b3lypvtz=-215025.4128239
C       1.46373849     -0.53847682     -0.29303981
N       2.67650525     -0.17337385     -0.32654865
N       0.37802605      0.33348426     -0.41713559
C      -0.81110823     -0.09006414     -0.37314051
N      -1.91662881      0.66480146     -0.53976621
F      -1.15554274     -1.38730416     -0.17971711
H       1.24600048     -1.59774054     -0.15730842
H       2.72519137      0.83914773     -0.45815705
H      -1.79569735      1.66167454     -0.55831792
H      -2.81048452      0.28785153     -0.28061062
