15
b3lypvtz=-180561.03374041
C       0.85948550      1.40177730      0.35527429
C       0.75085864      0.02163761     -0.28679033
N       2.04535001     -0.66729073     -0.15798310
C      -0.30968374     -0.84562050      0.39187144
C      -1.74341488     -0.44122448      0.17955355
O      -2.12335829      0.46817043     -0.51410939
H       1.62600052      1.99710684     -0.14581603
H      -0.08307177      1.94073183      0.27962511
H       1.14005692      1.31017998      1.40654005
H       0.44878739      0.15887717     -1.33288958
H       2.78420417     -0.08889163     -0.54211044
H       2.04678140     -1.52791380     -0.69477979
H      -0.12609139     -0.90330483      1.47126271
H      -0.23568419     -1.88549516      0.04523261
H      -2.47903529     -1.07400902      0.72111390
