13
b3lypvtz=-203100.13268428
C      -2.34848951     -0.08094725      0.00000632
O      -1.07482604     -0.71427271      0.00003066
C       0.01111058      0.09017561      0.00001352
N       0.09129305      1.35434058      0.00002147
O       1.08256115     -0.71007078      0.00003075
C       2.35580901     -0.05566354      0.00000803
H      -2.48461958      0.53376672      0.89279977
H      -3.07940989     -0.88449429      0.00000254
H      -2.48459106      0.53375251     -0.89280149
H      -0.81168222      1.81089619      0.00001841
H       3.09037753     -0.85624274      0.00000331
H       2.46723459      0.56848582     -0.88568106
H       2.46726138      0.56849688      0.88568577
