16
b3lypvtz=-170470.37181218
C       2.43544519      0.29028345      0.02814595
C       1.23560586     -0.60141269     -0.29437771
C      -0.02422208     -0.20653647      0.46107221
C      -0.76331530      1.07378562      0.01388719
O      -1.97941600      0.33700228     -0.24932744
C      -1.33979077     -0.91694489      0.08263698
H       2.23179097      1.33486229     -0.21743312
H       3.31856937     -0.01378161     -0.53537135
H       2.68628738      0.24380825      1.09014200
H       1.48055884     -1.64194492     -0.05902777
H       1.03098482     -0.57126222     -1.36929739
H       0.16582475     -0.22328771      1.53547219
H      -0.36891120      1.53973407     -0.89523165
H      -0.91334437      1.84424753      0.77371764
H      -1.86250475     -1.43815704      0.88821474
H      -1.27083171     -1.57874194     -0.78679547
