13
b3lypvtz=-156463.06594724
C      -2.90953468     -0.72726705     -0.16418131
C      -1.96558557      0.00549811     -0.05500189
C      -0.80781177      0.88944863      0.09645163
C       0.46055748      0.16191823      0.46532019
C       1.55301090      0.16346542     -0.29955313
N       2.72377448     -0.55529784     -0.07729585
H      -3.74313859     -1.37564201     -0.26593962
H      -0.65684875      1.44137699     -0.83577982
H      -1.05216595      1.64030418      0.85699932
H       0.44516582     -0.40246783      1.39219582
H       1.55690225      0.71788694     -1.23265819
H       2.84031296     -0.91008951      0.85990668
H       3.56546142     -0.11927126     -0.41868782
