15
b3lypvtz=-157220.46818168
C      -3.12379997     -0.03051264     -0.23089655
C      -1.96998228     -0.19314818      0.05243533
C      -0.56832236     -0.37292641      0.41589460
N       0.29691148      0.58961787     -0.26887649
C       1.67583750      0.59845770      0.22012837
C       2.48401886     -0.59175965     -0.28806096
H      -4.14457915      0.10677016     -0.48651867
H      -0.48010538     -0.31209843      1.51454517
H      -0.26133547     -1.38536652      0.14115634
H      -0.10747934      1.51250708     -0.17655248
H       1.72304918      0.62709849      1.32182796
H       2.13622857      1.52058958     -0.13871050
H       2.46565565     -0.62551189     -1.37771305
H       2.09295584     -1.53901013      0.08644495
H       3.52161287     -0.51545603      0.04140599
