18
b3lypvtz=-147944.64359545
C      -1.76508017     -1.44514782     -0.15278274
C      -1.04653189     -0.49269027      0.42824446
C      -0.14394793      0.48432670     -0.27360142
C      -0.66262748      1.91880432     -0.08389665
C       1.31363640      0.36745651      0.21646038
C       1.98160395     -0.97022518     -0.09660161
H      -2.40480031     -2.10452601      0.41948390
H      -1.74150025     -1.59920436     -1.22564645
H      -1.10431679     -0.37640052      1.50926727
H      -0.16046076      0.25261548     -1.34407334
H      -0.02539311      2.63466367     -0.60692837
H      -0.67268997      2.19327293      0.97394606
H      -1.67899348      2.02427931     -0.46490062
H       1.33704752      0.54874431      1.29633916
H       1.89261837      1.17632937     -0.23846531
H       3.01044974     -0.98816641      0.26671415
H       2.00767064     -1.15338461     -1.17330889
H       1.44868952     -1.80243342      0.36476901
