16
b3lypvtz=-168081.1891163
C      -1.21159247      0.73086122      0.20474879
C      -1.21122985     -0.73854906     -0.22029933
N       0.00021177     -1.45655988      0.18331211
C       1.21145094     -0.73820507     -0.22029032
C       1.21137232      0.73121490      0.20473196
N      -0.00020653      1.37259148     -0.30246306
H      -2.08354671      1.24433141     -0.20696471
H      -1.28510655      0.78049740      1.30650421
H      -1.28232778     -0.78820183     -1.31054576
H      -2.08020428     -1.25527148      0.19135521
H       0.00022230     -1.57846073      1.19065601
H       1.28258680     -0.78786136     -1.31053389
H       2.08056846     -1.25466930      0.19138789
H       2.08317020      1.24493080     -0.20700520
H       1.28489177      0.78089239      1.30648571
H      -0.00035139      2.35965210     -0.08242162
