16
b3lypvtz=-168071.68577397
N      -1.48660326      1.19434676     -0.14246013
C      -0.74009295     -0.00758271      0.27006553
N      -1.48290004     -1.22739584     -0.01728269
C       0.58739898     -0.01182889     -0.45236177
C       1.76364682      0.72919467      0.12928726
C       1.74643565     -0.77801607      0.10437650
H      -0.92065980      2.02630864     -0.01096496
H      -2.31876576      1.30754797      0.42618694
H      -0.53720903     -0.02495496      1.35042925
H      -1.80549895     -1.19919686     -0.97965305
H      -2.31130874     -1.28339490      0.56455434
H       0.48802497      0.01414958     -1.53172327
H       2.43086445      1.24961950     -0.54368387
H       1.63224529      1.21543945      1.08776781
H       2.40291529     -1.28722965     -0.58709822
H       1.59652308     -1.29963570      1.03981235
