13
b3lypvtz=-179790.28714678
C      -2.74878870      0.53115855      0.00000880
C      -1.73049975     -0.32607785     -0.00000616
N      -0.39983014      0.09205422     -0.00000999
C       0.50324552     -0.79735970     -0.00002963
O       1.81174960     -0.53437953     -0.00001797
C       2.19071478      0.85081672     -0.00000339
H      -3.76968442      0.17814471      0.00001261
H      -2.57395423      1.59834755      0.00001330
H      -1.92300246     -1.40091421     -0.00001881
H       0.32981847     -1.87583649     -0.00001127
H       1.80246326      1.35194493      0.88575972
H       3.27674623      0.85474042      0.00001747
H       1.80249884      1.35195468     -0.88577669
