13
b3lypvtz=-179800.41484221
C       2.64528525     -0.27653512      0.15718635
C       1.45278783      0.17751129     -0.22661818
N       0.28468134     -0.57671587     -0.12239339
C      -0.85388436     -0.02211613     -0.00622350
C      -2.12611297     -0.80420913      0.00109836
O      -1.09256213      1.31244008      0.13686427
H       3.53240602      0.32824049      0.03834077
H       2.74845981     -1.25923559      0.59673089
H       1.39638242      1.16233353     -0.69811850
H      -2.77838183     -0.46458381     -0.80584158
H      -2.66239318     -0.64337688      0.93812255
H      -1.90754627     -1.85999138     -0.12287736
H      -0.25605993      1.78572051      0.22456732
