15
b3lypvtz=-180544.35729963
N       1.95657845      0.46182403     -0.06229413
C       0.56130743      0.31757632      0.31664705
C       0.06447975     -1.08676916      0.73928341
C      -1.24882688     -0.81026331     -0.03979710
C      -0.47161431      0.26853747     -0.82839390
O      -1.10774906      1.45093862     -1.26242630
H       2.10439572      1.35940729     -0.51165296
H       2.55763304      0.44408558      0.75432125
H       0.21722037      1.05693392      1.05791650
H      -0.01135702     -1.29788433      1.80437592
H       0.66571779     -1.85870143      0.26006944
H      -1.70284288     -1.62450895     -0.60129595
H      -2.00912658     -0.35849727      0.60126091
H      -0.00357433     -0.16141923     -1.71442874
H      -1.57244151      1.83874044     -0.51368541
