15
b3lypvtz=-180559.82798095
C       1.21405099      1.26315371      0.24778115
C       0.80125252     -0.14958650     -0.07982668
N       1.58976385     -1.10642025     -0.35905357
C      -0.68996898     -0.46477736     -0.05123055
C      -1.49591450      0.33748763     -1.06106254
O      -1.23578936     -0.17520042      1.24358801
H       0.93567429      1.94097725     -0.56267933
H       2.29125031      1.33129075      0.39647703
H       0.70171635      1.61181202      1.14501741
H       2.56317393     -0.79598292     -0.34424835
H      -0.78285010     -1.53095144     -0.27224383
H      -1.11322846      0.17995654     -2.07005418
H      -2.53800590      0.02056168     -1.03034060
H      -1.46054333      1.40294766     -0.83239770
H      -0.86662862     -0.80441335      1.87167972
