13
b3lypvtz=-184794.05459418
C       2.65021326      0.15653240     -0.10353643
C       1.49558718     -0.39916964      0.26894539
C       0.18763959      0.15957674     -0.02189714
C      -0.96351455     -0.40126543      0.35361423
C      -2.32002491      0.14771364      0.07118900
F      -2.26246152      1.33747350     -0.64515913
H       3.60156283     -0.29739405      0.13699931
H       2.67601358      1.08467767     -0.66167428
H       1.51164483     -1.33081229      0.82746926
H       0.15974460      1.08966416     -0.57877776
H      -0.96023597     -1.33334482      0.91225572
H      -2.91455458     -0.56203614     -0.51423354
H      -2.86161433      0.34838427      1.00198836
