8
b3lypvtz=-211627.48750793975
C      -0.93163626     -0.53204155     -0.14912346
O      -1.99771017      0.00690114      0.11344869
C       0.29196122      0.18589924      0.05361085
N       1.44672285     -0.35831015     -0.21551754
N       2.43637157     -0.85537684     -0.45782296
O       0.27815960      1.46125999      0.53545517
H      -0.85535553     -1.55829950     -0.54032504
H      -0.66851328      1.64996767      0.66027427
