13
b3lypvtz=-179788.39237565
C       2.65428719     -0.35694598     -0.16674907
N       1.44591082     -0.49799432      0.16078721
C       0.65555054      0.69528974      0.41522666
C      -0.63419015      0.68656667     -0.41959333
C      -1.57279863     -0.44239111     -0.06340972
O      -2.75468072     -0.29617385      0.12409592
H       3.26244307     -1.23733935     -0.36150779
H       3.14184539      0.62128370     -0.26765908
H       1.21779102      1.61746902      0.21305102
H       0.39405043      0.69678440      1.47736288
H      -0.36643710      0.57485995     -1.47618562
H      -1.17139430      1.62855642     -0.30712128
H      -1.10311654     -1.44077529      0.01528820
