14
b3lypvtz=-169712.4483621
C      -1.34297357     -0.35036041     -0.40978689
O      -1.11814284      1.05686527     -0.29286333
C      -0.09809228      1.27050178      0.68607943
C       0.79623193      0.05091509      0.61676948
C       1.19440248     -0.40307305     -0.76087230
C      -0.01384081     -1.00373198     -0.09613214
H      -2.10711110     -0.68728554      0.30339333
H      -1.70844468     -0.53251008     -1.42196012
H       0.39705153      2.20933446      0.43179983
H      -0.53074456      1.36492506      1.69104883
H       1.41948122     -0.19093722      1.46600111
H       1.03631476      0.27755318     -1.58816760
H       2.07530620     -1.02435610     -0.84273975
H       0.00066173     -2.03794046      0.21753013
