16
b3lypvtz=-147188.45426152
C       1.87853192     -0.00000048     -0.54129050
C       0.76400899      0.00000230      0.50702582
C      -0.17307718      1.23179379      0.34450271
C      -1.40606265      0.66424499     -0.30876252
C      -1.40606001     -0.66424038     -0.30876226
C      -0.17307158     -1.23179347      0.34450299
H       2.51404683      0.88239138     -0.44248918
H       2.51404870     -0.88239131     -0.44248929
H       1.46094888     -0.00000023     -1.55122107
H       1.22181295      0.00000070      1.49716156
H      -0.42177296      1.68425198      1.31079622
H       0.29341930      2.02228114     -0.25048237
H      -2.20035697      1.28487344     -0.70280228
H      -2.20035539     -1.28487705     -0.70280237
H      -0.42176823     -1.68425346      1.31079709
H       0.29342540     -2.02228236     -0.25048255
