17
b3lypvtz=-158019.29063476
C      -2.17933535     -0.00684856     -0.14708668
C      -0.74923124     -0.03114380      0.37052799
C       0.08178542      1.22364264      0.03494541
C       1.53361391      0.70982237     -0.15069022
C       1.43565490     -0.80731518      0.09068281
N       0.04332636     -1.10005031     -0.24616551
H      -2.73688275      0.82505107      0.28791636
H      -2.70900004     -0.92773273      0.10736084
H      -2.18466385      0.09829426     -1.23313956
H      -0.77517956     -0.14168033      1.46875538
H      -0.00019098      1.97458833      0.82063357
H      -0.28643093      1.67523051     -0.88722465
H       2.23670013      1.18060859      0.53574914
H       1.88245012      0.91057383     -1.16304227
H       2.11822272     -1.38295441     -0.53585018
H       1.67418515     -1.03423541      1.14212586
H      -0.24627400     -2.01985487      0.06319073
