14
b3lypvtz=-167325.99115949
C       2.85353310      0.44740036     -0.00000290
C       1.63442539     -0.42118245     -0.00002431
C       0.38485423      0.04367904      0.00001902
N      -0.76162942     -0.74367638      0.00001016
C      -2.06899271     -0.29675748     -0.00000455
N      -2.53791443      0.88391922     -0.00000679
H       3.47948388      0.25978616      0.87713389
H       2.58908722      1.50566946      0.00005173
H       3.47945511      0.25986914     -0.87717794
H       1.79724530     -1.49583115     -0.00007772
H       0.19636400      1.10906288      0.00007340
H      -0.63215408     -1.74191834     -0.00002586
H      -2.77224660     -1.12884591     -0.00002022
H      -1.81544500      1.60135944      0.00000110
