15
b3lypvtz=-157222.83845439
C      -0.97788346     -0.24922852      0.91788853
C      -1.15187050      0.71751118     -0.29245584
C      -0.19043326     -0.14507322     -1.11595214
C      -0.04021436     -1.11593443      0.07537539
C       1.12957179     -0.31350679     -0.43953701
N       1.82191870      0.75431331      0.23980531
H      -1.90671764     -0.75131225      1.18087938
H      -0.54344768      0.17380010      1.82651004
H      -2.16540562      0.69040611     -0.68831293
H      -0.87696480      1.76539209     -0.14669934
H      -0.31888587     -0.36791968     -2.16631460
H      -0.02824668     -2.19760632      0.06882896
H       1.80821833     -0.92563117     -1.02478480
H       2.23127122      0.43594977      1.10996030
H       1.20908983      1.52883985      0.45480872
