13
b3lypvtz=-177383.6899774
N       1.05953789      1.35141341     -0.17946031
C       0.77432440      0.13932367      0.08862148
N       1.60527241     -0.96724655     -0.00126704
N      -0.51507150     -0.22992935      0.52605953
C      -1.47215240     -0.73117001     -0.46817496
C      -1.63866362      0.60849609      0.15577705
H       2.04403529      1.46502988     -0.40822420
H       1.35560517     -1.73792397      0.59817742
H       2.59316200     -0.77718467     -0.03342510
H      -2.07998765     -1.56927219     -0.15138684
H      -1.14242203     -0.76029599     -1.49993475
H      -2.37645999      0.75116660      0.93472226
H      -1.41199398      1.47797807     -0.44639455
