12
b3lypvtz=-145620.09153275
C       3.33177203      0.24324504     -0.00004514
C       2.14232643      0.04679483     -0.00000116
C       0.79708189     -0.17629382      0.00008876
C      -0.39379170     -0.37907990      0.00020317
C      -1.83155835     -0.60346662      0.00004345
C      -2.65082283      0.69747119     -0.00001208
H       4.37857942      0.41655259     -0.00013936
H      -2.09501117     -1.20584748     -0.87449111
H      -2.09524612     -1.20591516      0.87445986
H      -3.71692329      0.46862208     -0.00019704
H      -2.42757852      1.29680892      0.88199842
H      -2.42729379      1.29691333     -0.88187979
