16
b3lypvtz=-168068.09541576
C      -2.37014947      0.32738791     -0.35818243
C      -0.92186832      0.38580663      0.05085595
N      -0.48320275     -0.56110566      1.09427460
C       0.04011186     -0.69175910     -0.27105630
C       1.50796088     -0.42755939     -0.54990223
N       2.01397329      0.73778215      0.18158542
H      -2.71922106     -0.70510062     -0.38224587
H      -2.99611065      0.87508419      0.34980106
H      -2.51802106      0.76599798     -1.34804893
H      -0.50656433      1.38612166      0.12563509
H       0.23564890     -0.10585135      1.65291374
H      -0.34319108     -1.55880973     -0.80207237
H       2.07635037     -1.30016991     -0.21663180
H       1.65322863     -0.35835042     -1.63616547
H       1.85459200      1.59342438     -0.33433716
H       3.01059379      0.66479028      0.33312570
