15
b3lypvtz=-180561.55462975
C       0.90034348      1.43848628     -0.32402500
C       0.68841565      0.05308710      0.27373629
C       1.95053794     -0.79249629      0.27315336
O      -0.28626663     -0.68136531     -0.50291439
C      -1.60844890     -0.47962734     -0.29213072
N      -2.22090492      0.27395553      0.51374741
H       1.26571758      1.35217997     -1.34825078
H       1.63817184      1.99193096      0.25892561
H      -0.02383296      2.01529399     -0.33902945
H       0.31667396      0.13897561      1.29909451
H       2.73038782     -0.30633203      0.86059155
H       2.31842281     -0.92688787     -0.74482263
H       1.75649833     -1.77537115      0.70139590
H      -2.16828090     -1.11870872     -0.97045009
H      -1.60465212      0.83187725      1.09990243
