12
b3lypvtz=-192256.53528466
C       1.17292271      1.28616714     -0.06346060
C       0.86109299     -0.18700855      0.02030242
O       1.70815950     -1.04786050     -0.06106561
C      -0.57045842     -0.59503525      0.23604871
C      -1.63642141     -0.14515893     -0.67719146
O      -1.51158253      0.41051589      0.62473817
H       2.20840989      1.41803590     -0.36600987
H       1.01268437      1.74271115      0.91598436
H       0.50659812      1.80312896     -0.75519139
H      -0.68266540     -1.55931955      0.72068530
H      -1.39717145      0.52307021     -1.49797841
H      -2.49160437     -0.79410748     -0.83283161
