11
b3lypvtz=-204944.06954314
N       2.26462459     -0.73743677     -0.21282021
C       1.29106545     -0.22165548      0.11935818
C       0.06199521      0.49577287      0.52699790
N      -0.28181035      1.62021492     -0.33415535
C      -1.12225083     -0.46084442      0.61916324
F      -1.42397277     -0.94947742     -0.64669076
H       0.23574931      0.87508298      1.53864313
H       0.48942780      2.27184592     -0.40683231
H      -0.49146279      1.28787963     -1.26849849
H      -0.89756905     -1.30880811      1.26658074
H      -1.99128756      0.08558489      0.98569892
