16
b3lypvtz=-170487.00118347
C      -1.32323013     -1.06894450     -0.65942117
C      -0.53898820     -0.06731897      0.20268267
C      -1.20767259      1.31584513      0.17082932
C       0.90120442      0.01285404     -0.22832026
C       1.93275820     -0.30708819      0.54611176
O       3.25697656     -0.25700904      0.21683105
H      -1.32074062     -0.76220300     -1.70863616
H      -0.88435387     -2.06560406     -0.60262444
H      -2.36433456     -1.13402953     -0.33603987
H      -0.55848537     -0.42613537      1.23675358
H      -0.68652948      2.02005235      0.82012367
H      -1.19990275      1.72695240     -0.84200428
H      -2.24857653      1.25571685      0.49580426
H       1.08724649      0.35788277     -1.24470805
H       1.80746823     -0.65542930      1.56404971
H       3.34716019      0.05455840     -0.69103178
