12
b3lypvtz=-189825.37853027042
C      -2.17659154      0.15852679      0.57012604
N      -0.90868787     -0.00450580      0.19329815
C      -0.32134229     -0.92567969     -0.55713429
O       1.03342666     -0.91557618     -0.84767956
C       1.89933549     -0.00617308     -0.41303718
N       1.58786936      0.98067193      0.33367366
H      -2.92856522     -0.54290825      0.25110146
H      -2.40433994      0.99889780      1.19807544
H      -0.22343741      0.69222709      0.52265497
H      -0.84639568     -1.74666144     -1.00673817
H       2.89176802     -0.24067056     -0.79218906
H       2.39696042      1.55185137      0.54784852
