16
b3lypvtz=-168086.07896505
C       2.32708803     -0.38178978      0.16064969
C       0.88153138     -0.01978482     -0.03922804
N       0.65734058      1.33765949     -0.20197295
C      -0.09451749     -0.94558816      0.00399283
C      -1.55431354     -0.70822618     -0.27995531
N      -2.06847250      0.53669674      0.32878270
H       2.44982423     -1.45240790      0.30823436
H       2.74405829      0.14425025      1.02299794
H       2.92100722     -0.09120127     -0.71202946
H       1.36480832      1.86743667     -0.68209198
H      -0.30194037      1.61219868     -0.36086659
H       0.19415986     -1.96437218      0.22300560
H      -2.11774143     -1.59543278      0.03536026
H      -1.72071770     -0.61195649     -1.36086134
H      -3.05892651      0.63798108      0.13847437
H      -1.95958537      0.49528467      1.33645393
