13
b3lypvtz=-156484.04634372
N      -1.93423233     -0.00000199     -0.42581627
C      -0.71662311     -0.00000092      0.39522284
C       0.19197820      1.17666670      0.13247608
C       1.42651007      0.73525916     -0.14223372
C       1.42651156     -0.73525631     -0.14223418
C       0.19198061     -1.17666653      0.13247546
H      -2.49984423     -0.81165383     -0.20382439
H      -2.49984562      0.81164889     -0.20382445
H      -0.93047562     -0.00000140      1.48212476
H      -0.13201068      2.20484018      0.19836146
H       2.29589432      1.34678735     -0.33724492
H       2.29589708     -1.34678261     -0.33724568
H      -0.13200626     -2.20484070      0.19836000
