15
b3lypvtz=-157253.95548831
N       2.00245390      0.30834497     -0.39836416
C       0.75855770     -0.21936396      0.15364792
C      -0.03153778      0.84695486      0.94815533
C      -1.46232698      0.40099698      0.79961128
C      -1.60364938     -0.50427047     -0.16493826
C      -0.28874753     -0.81910635     -0.83055422
H       2.53192069     -0.42401297     -0.85717808
H       1.80642454      1.01228464     -1.10234270
H       1.03759677     -1.01055798      0.85407660
H       0.30325643      0.91933868      1.98435365
H       0.11512889      1.84169720      0.50820189
H      -2.27189161      0.80672368      1.39198392
H      -0.21970469     -0.32929366     -1.81052159
H      -2.54460007     -0.94304350     -0.47069793
H      -0.13278090     -1.88669212     -1.00523366
