14
b3lypvtz=-190636.29468479
N       2.09907681     -0.61513103     -0.32994908
C       1.03762174     -0.02660490      0.06945629
N       0.84526902      1.33385738      0.19887186
C      -0.13846132     -0.87140555      0.51349406
C      -1.40376874     -0.68416015     -0.31468588
O      -1.95661916      0.61099400     -0.03695087
H       2.82015599      0.05737416     -0.59570903
H       1.50382399      1.93672966     -0.26693495
H      -0.11177845      1.65387440      0.20393084
H       0.17617230     -1.91085520      0.45071285
H      -0.37602274     -0.64892597      1.55746395
H      -1.17377060     -0.78339451     -1.38071811
H      -2.12535011     -1.46251821     -0.04727283
H      -2.70360170      0.76382793     -0.62209610
