13
b3lypvtz=-177356.88483718
C      -1.80657552      0.78240786      0.21146957
C      -1.00364566     -0.34957096     -0.34219227
N      -1.69050783     -0.48024196      0.94274933
C       0.47366161     -0.25249821     -0.38050235
N       1.14903520     -0.16120381      0.69209124
N       2.50663877      0.04117671      0.61097750
H      -2.78774643      0.99420236     -0.19617514
H      -1.25321140      1.64210392      0.57008902
H      -1.43808862     -0.93154971     -1.14781947
H      -0.99300350     -0.38588407      1.67653899
H       0.95160099     -0.24986339     -1.36632675
H       2.93407565     -0.31409645     -0.24120409
H       2.95776674     -0.33498232      1.43108955
