10
b3lypvtz=-217404.63426497
N      -2.41186661      0.23611750     -0.57375381
C      -1.16577623      0.03957137     -0.73313599
C      -0.13851116      0.06631185      0.29306328
F      -0.56005556      0.32783086      1.54832030
C       1.15991159     -0.14930568      0.05538800
O       2.09317606     -0.11758765      1.03353602
H      -2.62001669      0.42495044      0.40882610
H      -0.79897987     -0.17454688     -1.73850908
H       1.47979051     -0.35741859     -0.95738027
H       2.96232796     -0.29582323      0.66384545
