13
b3lypvtz=-179770.62117557
C      -1.05259792     -0.96758511     -0.04115353
C       0.06449037      0.05899307     -0.35748205
C      -0.91192911      1.06877766      0.29589567
O      -1.92479204      0.05728702      0.48022215
C       1.37956331     -0.14665169      0.32515044
N       2.53461519     -0.16432308     -0.19324784
H      -1.48397994     -1.47359269     -0.90697983
H      -0.79493853     -1.70900229      0.72031608
H       0.21329676      0.22460135     -1.42420105
H      -0.57380121      1.48481142      1.24916762
H      -1.25294573      1.87908579     -0.35127039
H       1.31955667     -0.30150976      1.40715579
H       2.48346219     -0.01089170     -1.20357307
