15
b3lypvtz=-157232.86833992
C       2.06443318     -0.05831330      0.14977453
N       1.08492416      0.44339838     -0.46558304
C      -0.27005454      0.16877673     -0.04665368
C      -1.03331264      1.45314137      0.19640828
C      -0.98015695     -0.95715981     -0.74187892
C      -0.65013757     -1.06682587      0.73221901
H       3.07172903      0.17288175     -0.19007721
H       1.97306082     -0.71858856      1.01815387
H      -0.97049851      2.09816700     -0.68103743
H      -2.08372201      1.24765735      0.40413106
H      -0.61781271      1.99736655      1.04702916
H      -2.00908818     -0.80415076     -1.03925378
H      -0.39794996     -1.56197285     -1.42377610
H      -1.45619032     -0.98482026      1.44888277
H       0.11484119     -1.77577871      1.01467448
