12
b3lypvtz=-166579.53510619
C      -1.66049695     -0.21454572      0.19607891
N      -0.24067695      0.04446248      0.03781319
C       0.74560530     -0.88355844     -0.21135584
C       1.91468018     -0.17571369     -0.27926437
N       1.67616344      1.16084049     -0.07900200
C       0.38050150      1.25578898      0.10684996
H      -2.23836678      0.31510005     -0.56171474
H      -1.84155693     -1.28077683      0.08548113
H      -2.00352185      0.09421345      1.18387969
H       0.52472288     -1.93136434     -0.31355629
H       2.90771783     -0.55166647     -0.45995134
H      -0.16477166      2.16722002      0.29474170
