10
b3lypvtz=-189090.09276057
N       1.08637051     -0.10175322      0.08643508
C       0.32131494      0.70061850      0.93804260
C      -0.65823782      0.36732523      1.81955867
O      -1.05935686      1.46287915      2.50744145
N      -0.33572755      2.55692243      2.06888907
C       0.47626523      2.10109377      1.15307640
H       0.67235294     -1.00187981     -0.10419378
H       1.33062299      0.35339881     -0.78069965
H      -1.14717620     -0.55803459      2.06930685
H       1.15707182      2.78122973      0.66414332
