13
b3lypvtz=-179801.55485749
C       3.04838344      0.13951145      0.00000305
C       1.67428496     -0.44759307      0.00000366
C       0.54712067      0.26432069     -0.00000034
N      -0.71281047     -0.33571509     -0.00000202
C      -1.74162642      0.39828612     -0.00000626
O      -2.98858244     -0.10482281      0.00000204
H       3.02093694      1.23000116     -0.00000400
H       3.61788011     -0.18379785     -0.87624287
H       3.61787443     -0.18378666      0.87625678
H       1.58700569     -1.52898182      0.00000758
H       0.59127393      1.35568599     -0.00000448
H      -1.75421877      1.48924011      0.00000498
H      -2.90349408     -1.07026322      0.00000287
