15
b3lypvtz=-157247.7454161
C       3.10946655      0.11227419     -0.00028327
C       1.91021121     -0.46922459      0.00023869
C       0.66211749      0.28298027      0.00008507
N      -0.46629849     -0.29628314      0.00059274
C      -1.66922619      0.53516354      0.00040830
C      -2.92554301     -0.32373407     -0.00028971
H       3.21288736      1.19113018     -0.00085284
H       4.02322398     -0.46567046     -0.00014619
H       1.80740592     -1.54816523      0.00081264
H       0.76087346      1.37917378     -0.00055949
H      -1.66422847      1.19038772     -0.87839634
H      -1.66480625      1.18968131      0.87973646
H      -2.95082684     -0.96540746     -0.88168234
H      -3.82217037      0.29857467     -0.00036458
H      -2.95136733     -0.96599372      0.88065886
