13
b3lypvtz=-179739.50837107
C       0.26300749      0.77257198     -0.35567959
C       1.20348600     -0.17920290      0.41837974
C      -0.01261113     -1.10005767      0.52485083
N      -0.07559308     -0.60910199     -0.93525029
C       1.44105717     -0.85221613     -0.95284484
O       2.08623827      0.07792322      1.46046064
H       0.69933551      1.45238454     -1.08758052
H      -0.56253168      1.23163283      0.18655059
H      -0.85500545     -0.76944753      1.13056834
H       0.16115525     -2.17127070      0.61527982
H       1.71289272     -1.90680631     -0.96688002
H       1.95992802     -0.28631326     -1.72663096
H       2.76864090      0.68630392      1.15667628
