11
b3lypvtz=-176609.43241806747
C      -1.57521154     -0.56287068      0.23249591
C      -0.37684092      0.00542260     -0.01032997
C       0.80372848     -0.83485884     -0.16724609
N       1.97721150     -0.33722476     -0.40148421
N       3.00081572      0.11319375     -0.60676191
N      -0.18692968      1.36555393     -0.12354671
H      -2.46664577      0.03536109      0.35285319
H      -1.67072022     -1.63359667      0.31239447
H       0.75021868     -1.90829235     -0.09491249
H      -0.96559549      1.98700051     -0.02428392
H       0.70996924      1.77031141     -0.30382189
