12
b3lypvtz=-189875.35684862
C      -2.32495689     -0.16099422      0.01164371
N      -1.01536685     -0.78132409      0.00339878
C       0.00690889     -0.01300199     -0.00924622
N       0.06447822      1.34953426     -0.04395534
C       1.34131188     -0.69249502     -0.01119041
O       2.38803494     -0.09182187      0.02560578
H      -3.09371065     -0.93046267     -0.01629421
H      -2.48752770      0.44123081      0.91607859
H      -2.47075837      0.50028711     -0.85253023
H       0.97377161      1.76344069      0.08610100
H      -0.74096845      1.90422864      0.18000181
H       1.27344037     -1.79198165     -0.03991425
