11
b3lypvtz=-179008.29777339
C       2.68651240     -0.04456540     -0.61163323
C       1.53201583     -0.01934012     -0.26393098
C       0.20501082      0.05939771      0.20853018
C      -0.86256468     -0.42129385     -0.45444883
N      -2.14817784     -0.40557390      0.05057468
O      -0.02126886      0.66438096      1.44377517
H       3.69668513     -0.07931571     -0.93411578
H      -0.71788366     -0.90565016     -1.40779489
H      -2.29162825      0.21798559      0.83008591
H      -2.89052559     -0.37500497     -0.62811089
H       0.81182471      1.01857823      1.76706865
