12
b3lypvtz=-192243.1014991
C       2.35381710      0.11288304      0.02685002
C       1.15798006      0.04073362      0.03930477
C      -0.31461463     -0.03483444      0.00205288
C      -0.95073603      1.35208509     -0.02912944
O      -0.69716542     -0.76263400      1.15768143
O      -0.75411934     -0.69684832     -1.17164240
H       3.41361457      0.17388893      0.02442766
H      -0.68309930      1.90157478      0.87058446
H      -0.61650270      1.90455564     -0.90504917
H      -2.03538083      1.24244220     -0.08038735
H      -1.66111212     -0.80663135      1.15554955
H      -0.30671837     -1.55068020     -1.21061239
