11
b3lypvtz=-176653.07971176
N       2.66781675      0.14819669     -0.05070586
C       1.60924160     -0.31962969     -0.00534589
C       0.30489247     -0.84382185      0.05368728
C      -0.78608017     -0.02555608      0.01311794
N      -0.71013469      1.34473460      0.08650761
N      -2.07298173     -0.50672523     -0.10834344
H       0.18053562     -1.91250189      0.14234476
H      -1.36707441      1.84953017     -0.48827030
H       0.22341136      1.72637088      0.06389707
H      -2.77074218     -0.01139142      0.42604188
H      -2.16791563     -1.50734219     -0.05142304
