13
b3lypvtz=-156496.20412643
N      -2.11702150      0.00544656     -0.07819714
C      -0.72850015     -0.05785167      0.00092328
C       0.08129894     -1.13972901      0.01013177
C       1.51145766     -0.68158405      0.00559939
C       1.39366588      0.81600328      0.00515230
C       0.09812447      1.15833040     -0.00359744
H      -2.52926476      0.79487450      0.39504016
H      -2.59142837     -0.85167531      0.16065137
H      -0.22547688     -2.17461485      0.01308284
H       2.06799993     -1.03119502     -0.87325692
H       2.07406343     -1.03838683      0.87720996
H       2.23733319      1.48954276      0.00282302
H      -0.30311783      2.16281423     -0.02061459
