11
b3lypvtz=-199892.44236859
C      -2.25885904      0.24119967      0.03569070
N      -0.95063184      0.59614644      0.53851802
C       0.04695818      0.00125723      0.05368609
N       1.33912388      0.33029114      0.52987641
N       2.19959630     -0.33632805     -0.04265122
O       3.44884697      0.00344233      0.43980025
H      -2.87519999     -0.10225475      0.86895631
H      -2.24644124     -0.53210352     -0.74288530
H      -2.73924809      1.13795471     -0.36065762
H      -0.00034398     -0.77028105     -0.72495987
H       4.03619885     -0.56932416     -0.06989925
