12
b3lypvtz=-189837.9836331
C      -0.76783758      1.42119218      0.00015381
C      -0.93430857     -0.07552046      0.00001493
N      -2.05790949     -0.68319872     -0.00008395
C       0.23359981     -0.99239074      0.00001403
N       1.49320837     -0.79345564     -0.00008326
O       1.87589566      0.55166273     -0.00019740
H      -0.20284075      1.75001616     -0.87189901
H      -1.74570673      1.90279996      0.00026056
H      -0.20269994      1.74981698      0.87220133
H      -2.82998180     -0.01562234     -0.00008283
H      -0.03750859     -2.04169163      0.00006566
H       2.83637961      0.48938452     -0.00026987
