9
b3lypvtz=-229882.83451305
O      -2.06253092     -0.84692496     -0.00001782
C      -1.56521272      0.24779510     -0.00000959
C      -0.04941859      0.47219456      0.00000040
O       0.38225992      1.59565614      0.00000015
C       0.80514045     -0.77715030      0.00000253
F       2.13895105     -0.45767544      0.00000158
H      -2.14992103      1.18658777     -0.00002048
H       0.57001412     -1.37944733     -0.88254163
H       0.57001474     -1.37944453      0.88254886
