13
b3lypvtz=-203089.32799398
C       2.31133838      0.42325069      0.42832334
O       1.60539320     -0.46671555     -0.43230765
C       0.28648631     -0.65908188     -0.09650466
O      -0.44992787      0.54391863     -0.37473084
C      -1.77445823      0.56121662     -0.09669386
N      -2.53034903     -0.33557190      0.36974517
H       3.35223573      0.39573141      0.11621446
H       2.23745282      0.09551236      1.47105425
H       1.93191905      1.44270672      0.34283988
H      -0.09328980     -1.47068211     -0.71939430
H       0.16454994     -0.90071439      0.96883664
H      -2.17601600      1.53975168     -0.34631352
H      -2.05770650     -1.21432127      0.56641406
