14
b3lypvtz=-167284.65175151665
C       1.66351033     -0.17465817     -0.66014996
C       0.32673613     -0.18170044      0.01017742
C      -1.04313500     -0.22379836     -0.68876264
N      -1.67680739      0.47738531      0.48622290
C      -0.33235613      0.63011280      1.07841282
N       0.20278884     -0.67403093      1.38804796
H       1.88646555     -1.15404044     -1.09327403
H       1.70095573      0.56400208     -1.46354157
H       2.44584332      0.05500367      0.06243557
H      -1.05765266      0.38467000     -1.59470187
H      -1.46488343     -1.20796120     -0.90663317
H      -2.06879018      1.36783425      0.20212937
H      -0.04223159      1.49429715      1.66134893
H      -0.54044356     -1.35711572      1.51828828
