15
b3lypvtz=-157214.01808082
C       2.13803738     -0.03288568     -0.17401271
N       0.73968900      0.25191717     -0.47995296
C      -0.08991606      0.43628189      0.72160728
C      -0.17411248     -0.82725030     -0.07180024
C      -1.56561712     -0.45550478     -0.58577445
C      -1.47693084      0.87092707      0.24664473
H       2.67861095      0.90846245     -0.06569053
H       2.28177031     -0.61972228      0.74557505
H       2.57975009     -0.58607370     -1.00403925
H       0.37967497      0.62598123      1.67709212
H       0.21745128     -1.81138460      0.14639929
H      -1.64594054     -0.35050354     -1.66736401
H      -2.34828499     -1.11928821     -0.22156752
H      -1.50100340      1.80416349     -0.31540492
H      -2.21317854      0.90487981      1.04828808
