15
b3lypvtz=-157247.38170533
C       3.16814604      0.09693099      0.09538149
C       1.93388680     -0.40838539     -0.01677813
C       0.70530103      0.34838581     -0.00841042
C      -0.50967069     -0.22059607     -0.13329416
N      -1.71692962      0.43265171     -0.21931472
C      -2.94329423     -0.23225693      0.18157494
H       4.04122726     -0.54000361      0.08566749
H       3.33858585      1.16187889      0.19894336
H       1.82509731     -1.48543622     -0.12147448
H       0.78023808      1.42770059      0.09453963
H      -0.58878755     -1.29972162     -0.22425459
H      -1.68287098      1.41900548     -0.01242431
H      -2.99911560     -1.21067449     -0.29717091
H      -3.02890762     -0.37943105      1.26574944
H      -3.80007908      0.34994891     -0.15581562
