12
b3lypvtz=-166573.45525475
N      -2.03599438     -0.01188647      0.05363561
C      -0.67364896     -0.06185437     -0.00543184
N      -0.00070034     -1.16557903     -0.00893649
C       1.36320922     -0.78573621     -0.00306221
C       1.55947647      0.53966244     -0.00093968
C       0.19663252      1.17672567      0.00146549
H      -2.51580159     -0.87940415     -0.12474151
H      -2.50078417      0.81879399     -0.26738047
H       2.11377029     -1.56222817     -0.00563095
H       2.49681512      1.07057368     -0.00327076
H       0.00334195      1.79025454      0.88608269
H       0.01094187      1.80841509     -0.87308687
