16
b3lypvtz=-193779.14935366
C      -2.84193224     -0.25207426     -0.12874360
C      -1.40445704     -0.40003580      0.32315781
O      -0.65039169      0.68422990     -0.22494045
C       0.66745906      0.73435935      0.18675266
O       1.39225645     -0.34530848     -0.37003179
C       2.73993997     -0.36975585      0.04936362
H      -3.44940629     -1.06426499      0.27381743
H      -3.25994461      0.69532611      0.21307075
H      -2.90557088     -0.28178251     -1.21669445
H      -0.98295494     -1.34987462     -0.01423185
H      -1.33324568     -0.36952517      1.41848561
H       1.07398073      1.68843469     -0.16899586
H       0.74516018      0.69092669      1.28809747
H       3.27701783      0.53687745     -0.25776413
H       3.20969859     -1.23115190     -0.42110582
H       2.82546856     -0.46987161      1.13915559
