12
b3lypvtz=-189882.26124124
C      -1.43763880     -0.35318537      0.42096282
C      -0.18099346      0.41004983      0.13755517
N       0.01630657      1.65589092      0.30262876
C       1.00127343     -0.34875316     -0.40384783
N       0.92436875     -1.59566046     -0.60968133
O       2.08707241      0.41284915     -0.62973177
H      -1.24058571     -1.14889133      1.13970326
H      -1.79192278     -0.84461752     -0.48544663
H      -2.21289125      0.30704339      0.80748846
H      -0.80001692      2.14085649      0.66922508
H       1.80484788     -1.95723594     -0.97490944
H       1.83017988      1.32165401     -0.37394657
