15
b3lypvtz=-180581.98167582
C       2.45618097      0.03341842     -0.30885406
C       1.25247251     -0.67991682      0.30278326
C      -0.03368827      0.12754048      0.16233733
O      -0.05076254      1.34272445      0.26595361
N      -1.15754946     -0.61214756     -0.06023571
C      -2.48232177     -0.02984149     -0.15806549
H       3.37648897     -0.51256755     -0.09921123
H       2.54395437      1.03890011      0.09836566
H       2.35313029      0.12070925     -1.39148610
H       1.41492706     -0.82346715      1.37546062
H       1.13025921     -1.67594631     -0.13014108
H      -1.06242954     -1.60948956     -0.13571530
H      -3.13070895     -0.37641926      0.64974773
H      -2.37369395      1.04889365     -0.08417364
H      -2.95009189     -0.27548364     -1.11332661
