9
b3lypvtz=-154909.5189054
C      -2.01335427     -1.07222284     -0.50569958
C      -1.07771989     -0.32099395     -0.45710037
C       0.02563235      0.60296821     -0.40183113
N      -0.09383147      1.87525892     -0.47859338
C       1.32717870      0.01095310     -0.25076397
C       2.39763332     -0.51601669     -0.12431626
H      -2.83984387     -1.73791803     -0.54854118
H      -1.07679175      2.12789904     -0.58275618
H       3.35109687     -0.96992779     -0.01239216
