17
b3lypvtz=-181315.25652866
C       2.54500930     -0.49537519     -0.10899599
C       1.51322104      0.56711552     -0.48290203
C       0.38007731      0.70531182      0.53743570
N      -0.44272659     -0.50929995      0.62979663
C      -1.49437974     -0.63373746     -0.32207020
O      -2.48704844      0.39486522     -0.13783867
H       3.04504374     -0.24109293      0.82895977
H       3.31346918     -0.59285550     -0.87762282
H       2.06744607     -1.46628804      0.02206563
H       1.99902267      1.54202778     -0.58407708
H       1.08979830      0.34093192     -1.46608868
H      -0.23006052      1.58301329      0.30031416
H       0.81400231      0.87837661      1.52485748
H      -0.80461516     -0.63413529      1.56500965
H      -1.95764863     -1.61802685     -0.20131825
H      -1.07693771     -0.56704569     -1.33160520
H      -3.10462813      0.36818774     -0.87591008
