14
b3lypvtz=-167316.9408288
N      -2.94181957     -0.44773939     -0.01939061
C      -1.92494114      0.31688227      0.03080852
C      -0.51855983     -0.07104721     -0.03516116
C       0.47677892      0.81655139      0.01747573
C       1.94075519      0.50411621     -0.03930594
N       2.22503369     -0.92734557     -0.01890243
H      -2.65110545     -1.42378442     -0.11723610
H      -2.11621433      1.38822827      0.13463446
H      -0.29304630     -1.12671739     -0.14392247
H       0.23521336      1.87197331      0.11301564
H       2.34144204      0.91681122     -0.97213885
H       2.43807346      1.07033976      0.76426754
H       2.04869348     -1.31257609      0.90170286
H       3.19919446     -1.09946739     -0.23092419
