14
b3lypvtz=-190626.39744221
N       2.45019976     -0.05615545     -0.29067283
C       1.22203553     -0.67767295     -0.02100499
C       0.07399899     -0.02752293      0.18292800
O       0.06092169      1.35165709      0.23191988
C      -1.26340124     -0.66693849      0.38806533
N      -2.25834708      0.03189432     -0.44855446
H       3.23897769     -0.49915437      0.15659049
H       2.43394480      0.93305390     -0.08634520
H       1.22394427     -1.75840995     -0.03809797
H      -0.84382628      1.60697663     -0.00948434
H      -1.58416999     -0.52798359      1.42638144
H      -1.19481596     -1.74414070      0.20537765
H      -2.16976975     -0.24651360     -1.41905903
H      -3.20247143     -0.17904689     -0.15223395
