13
b3lypvtz=-179766.426324938
C      -2.46978675      0.59174164     -0.55458214
C      -1.21588472      0.30205423     -0.88573153
C      -0.16625192      0.03645572      0.13085617
O      -0.40967766      0.06989656      1.37377426
C       1.11311457     -0.25550789     -0.30619564
N       1.99133704     -0.48400268      0.86125731
H       1.96338128      0.33916807      1.47482039
H       2.94825411     -0.70979770      0.60535125
H       1.58663397     -1.22229478      1.44972557
H      -2.75225239      0.63970763      0.48914291
H      -3.22847965      0.78390479     -1.30142232
H      -0.91516931      0.24978666     -1.92751548
H       1.55478142     -0.34111226     -1.28044978
