13
b3lypvtz=-208094.45600743
C       2.01008542     -0.52337355      0.14156426
C       0.77074161     -0.47577827      0.60838882
C      -0.28619508      0.48484798      0.15061023
O       0.19318441      1.25513220     -0.94567798
C      -1.56015890     -0.24635754     -0.28458585
F      -2.11104863     -0.93118295      0.79719946
H       2.71826854     -1.24979870      0.51690946
H       2.34948494      0.15945467     -0.62460120
H       0.44204837     -1.16657422      1.37665334
H      -0.55141414      1.13527389      0.99543514
H      -0.33384512      2.05565474     -1.01712748
H      -1.33579351     -0.96578185     -1.07319239
H      -2.30555790      0.46838360     -0.64167580
