14
b3lypvtz=-167317.31062014
C       0.39889276      1.69034679     -0.04623334
C      -0.07993007      0.43504288      0.02427201
C      -1.54758500      0.23993606      0.08798895
N      -2.20678087     -0.83388014     -0.06943802
N       0.68473738     -0.71696327     -0.02111517
C       2.13079196     -0.63862837      0.00068147
H      -0.28985149      2.52127018     -0.07036088
H       1.45162149      1.91785689     -0.11448510
H      -2.10930417      1.15125090      0.29392290
H      -1.59282059     -1.61839944     -0.29857531
H       0.30230738     -1.48115597      0.51401736
H       2.49044123     -0.13005202     -0.89538032
H       2.51952591     -0.09979503      0.87431546
H       2.54053307     -1.64701847      0.00238999
