15
b3lypvtz=-157238.22488629
C       2.45593492     -0.29489397      0.02626451
C       1.28359857      0.64148505      0.03316726
C       0.01141036      0.26618520     -0.05917339
C      -1.33032448      0.98069124     -0.03279072
C      -1.94759058     -0.43692577      0.12035601
N      -0.61225934     -0.99707731     -0.18760491
H       3.17980331     -0.02099632     -0.74651105
H       2.99503584     -0.28666279      0.97900827
H       2.15015973     -1.32377166     -0.17079841
H       1.48404338      1.70318028      0.11564153
H      -1.49156264      1.66597029      0.79670476
H      -1.59081510      1.47779465     -0.96668909
H      -2.29596131     -0.64379516      1.13544789
H      -2.72220174     -0.72142893     -0.59224971
H      -0.26133590     -1.80434681      0.30806603
