13
b3lypvtz=-203115.68865669
O      -1.48732862      1.38240755     -0.48068788
C      -1.51533534      0.76139067      0.56939728
N      -0.71831424     -0.27571533      0.89600016
C       0.24124741     -0.92788846     -0.00411600
C       1.32579081     -0.00826871     -0.57744385
O       0.91735937      0.71359991     -1.71405525
H      -2.22306389      1.01880555      1.37430165
H      -0.88166458     -0.70027346      1.79333336
H      -0.29118269     -1.39235720     -0.83817068
H       0.71056850     -1.72046821      0.57882606
H       1.69266138      0.65041347      0.22231178
H       2.16268888     -0.63488131     -0.89344424
H       0.06657302      1.13323553     -1.49815238
