12
b3lypvtz=-168964.82820971
O       2.31473776     -0.40331184     -0.42779642
C       0.98513148     -0.20777603     -0.20526928
C      -0.00931154     -1.00340000     -0.63810013
C      -1.31219012     -0.42233749     -0.17171879
C      -0.90196713      0.81106301      0.58266250
C       0.43396632      0.92097992      0.55367170
H       2.81691949      0.30408129     -0.01363884
H       0.09607122     -1.90455633     -1.21947762
H      -1.98346378     -0.17279049     -1.00227130
H      -1.87372887     -1.11051738      0.47157015
H      -1.59450569      1.48525795      1.06292336
H       1.02844086      1.70340740      1.00744466
