15
b3lypvtz=-178140.85379589
C      -2.56898772     -0.55515662      0.27601704
C      -1.07716273     -0.80023796      0.45009942
N      -0.32054625      0.38176224      0.04796936
N       1.04623436      0.22982116      0.27384934
C       1.85029487      0.83180537     -0.50206652
N       3.21168858      0.90951467     -0.23791261
H      -2.88872545      0.31075410      0.85654630
H      -2.82339384     -0.37194499     -0.77124470
H      -3.13994346     -1.42449975      0.60404433
H      -0.83978396     -0.98685749      1.49801540
H      -0.77228680     -1.69686265     -0.10930330
H      -0.52121123      0.62645734     -0.92185689
H       1.52563349      1.39476340     -1.38276021
H       3.51230149      0.27548877      0.48917055
H       3.80588866      0.87519241     -1.05228221
