10
b3lypvtz=-165803.74362505
C       0.69628836      0.80383832      0.02825867
C      -0.68071159      0.81730071     -0.02118593
C      -1.32220390     -0.41857481     -0.04923826
N      -0.67932685     -1.58330555     -0.03081797
N       0.64877829     -1.59628460      0.01689162
C       1.31391495     -0.44433182      0.04548779
H       1.28150649      1.71320454      0.05290490
H      -1.24835660      1.73791599     -0.03787000
H      -2.40225050     -0.49147221     -0.08839654
H       2.39236134     -0.53829058      0.08396572
