15
b3lypvtz=-157237.82948002
C      -1.93799385     -0.79671963     -0.18048834
C      -0.68081849     -0.18846806      0.42521493
C      -0.45578632      1.29514875      0.29161664
N       0.63906371      1.30127588     -0.37327435
C       0.64783917     -0.20412917     -0.40760488
C       1.88466457     -0.83126960      0.19869151
H      -1.86962615     -1.88607282     -0.20780887
H      -2.82292428     -0.53650795      0.40382576
H      -2.09549500     -0.44313420     -1.20120922
H      -0.53548356     -0.55365109      1.44576975
H      -1.00879965      2.17177853      0.62671594
H       0.49746793     -0.55478228     -1.43149354
H       2.76896200     -0.56743785     -0.38341205
H       2.03866176     -0.48101014      1.22108359
H       1.80046116     -1.91995837      0.21673315
