16
b3lypvtz=-170493.255972
C      -1.14287106     -0.95580273     -0.57502962
C      -0.49825513     -0.06410733      0.49058990
C      -0.74704482      1.42166404      0.20615731
C       1.00191208     -0.39934862      0.68168317
C       1.85399138     -0.18164524     -0.54132319
O       2.46499398     -1.05079525     -1.11128659
H      -0.99326119     -2.01354557     -0.35268858
H      -2.21715528     -0.77282379     -0.63324419
H      -0.72121768     -0.76531563     -1.56464967
H      -0.97316695     -0.29589537      1.44854362
H      -0.29090933      2.05742649      0.96766472
H      -1.81766395      1.63273781      0.19535979
H      -0.34895977      1.72352367     -0.76446342
H       1.40357731      0.24010555      1.47641188
H       1.12058163     -1.43926586      0.98861062
H       1.90544878      0.86308784     -0.91233574
