12
b3lypvtz=-189872.19154651
N      -1.06572227      1.21621398      0.11096601
C      -0.90418612     -0.12272932     -0.04427934
O      -1.80350400     -0.93939857      0.03883841
C       0.51705589     -0.55405699     -0.29266810
C       1.58520703     -0.29266959      0.71034316
N       1.51844103      0.49858526     -0.52050787
H      -0.30629807      1.82944060     -0.13642445
H      -1.99605621      1.57727287      0.22876226
H       0.58161744     -1.47842093     -0.85188336
H       1.34089046      0.24958841      1.61452989
H       2.36627605     -1.03555211      0.81490494
H       2.21372076      0.19765739     -1.19361655
