12
b3lypvtz=-168920.46239256
C      -2.73978876     -0.34976042     -0.14307333
C      -1.59290900     -0.13726409      0.13798789
C      -0.22320086      0.10188936      0.50784275
O       0.46603726      1.18171585     -0.15045285
C       0.89663886     -0.15378893     -0.41826382
C       2.26332908     -0.54423653      0.06640637
H      -3.75376261     -0.53135205     -0.39929804
H      -0.01821942      0.03500877      1.57251905
H       0.62696974     -0.50175055     -1.41203263
H       3.03047948     -0.12727403     -0.58857662
H       2.37314879     -1.63051709      0.06450786
H       2.43917342     -0.17498629      1.07654638
