12
b3lypvtz=-215570.31147249
C       1.32576050      0.02292169     -0.81682746
C       0.20728305      0.25612587      0.13333842
O       0.34232950      1.27039928      1.09712147
C      -0.94705263     -0.40788196      0.17832680
O      -1.93748599     -0.14450526      1.07890301
O      -1.27006620     -1.42214011     -0.66617342
H       2.24985318     -0.24833356     -0.29307826
H       1.53696354      0.91504152     -1.41799736
H       1.08005766     -0.78779074     -1.49957046
H       1.19775595      1.69117364      0.99025242
H      -1.63438877      0.58239342      1.63904014
H      -2.15090981     -1.72740378     -0.42333529
