12
b3lypvtz=-189898.56311533
O       2.13488650      1.45576230     -0.16886344
C       1.13606459      0.77466898     -0.08996977
N       1.05288577     -0.60124591     -0.25441262
C      -0.25284618     -1.09553525      0.15989325
C      -1.12368037      0.15690838     -0.05078086
N      -0.15157224      1.21589472      0.18268283
H       1.89103683     -1.12963208     -0.07914259
H      -0.58483953     -1.93492254     -0.44968967
H      -0.26401018     -1.40012032      1.21234935
H      -1.95519529      0.20277825      0.65122811
H      -1.52380558      0.18103411     -1.07048784
H      -0.35882432      2.17440936     -0.04260675
