17
b3lypvtz=-157997.0991952
C      -2.73629498     -0.00152945      0.19226148
N      -1.43218284      0.35163157     -0.34800697
C      -0.36677463     -0.55856388      0.05373987
C       0.96426277     -0.12185595     -0.50138975
C       2.24097305     -0.55064902      0.16396798
C       1.79889596      0.88713881      0.24598150
H      -3.47212601      0.74729032     -0.10240291
H      -2.75964550     -0.09393453      1.29036942
H      -3.05655382     -0.95964431     -0.22343819
H      -1.18595838      1.29519313     -0.07383200
H      -0.28498739     -0.65977847      1.15124574
H      -0.61841248     -1.55406179     -0.32720452
H       0.98510718     -0.04684628     -1.58177383
H       2.16705878     -1.15103052      1.06124579
H       3.08891263     -0.79154135     -0.46199657
H       1.42831608      1.24211419      1.19940612
H       2.34709760      1.62625353     -0.32158017
