9
b3lypvtz=-201573.48413725
N      -1.57964677      1.55037901      1.21847469
C      -0.92572509      0.72853219      0.74868086
C      -0.11957618     -0.32939469      0.11998108
O      -0.66581578     -0.76099710     -1.10902539
C       1.29050374      0.21369217     -0.19970476
O       2.16463156      0.27591725      0.61212368
H       0.00174779     -1.14464834      0.84062572
H      -1.57194202     -1.05914458     -0.97699753
H       1.40572274      0.52556408     -1.25395834
