12
b3lypvtz=-189844.91487685
C       2.45785455     -0.06198004     -0.05544090
C       1.28103083     -0.67506885      0.05314916
C      -0.02804088     -0.02333145      0.02237586
N      -0.12054609      1.34741952     -0.03070538
N      -1.04239356     -0.82229664     -0.00048662
O      -2.24748538     -0.07569153     -0.02392096
H       3.38141669     -0.62214635     -0.01669754
H       2.54930423      1.00602973     -0.20696833
H       1.22745551     -1.74955407      0.16990919
H      -1.04456267      1.70958165      0.14244786
H       0.62035366      1.85973761      0.41690865
H      -2.91629788     -0.76573859     -0.01288699
