12
b3lypvtz=-189892.85639357
C       2.17264339     -0.39566992     -0.00001407
C       0.71889820     -0.01324172      0.00522687
N       0.44224731      1.29528375      0.06186147
N      -0.17474885     -0.97374196     -0.04536405
C      -1.51198649     -0.65998951     -0.04239446
O      -2.03748517      0.44892552      0.00288587
H       2.68211042      0.04732352     -0.85854617
H       2.66747702     -0.03255218      0.90337670
H       2.26107294     -1.47581341     -0.04817803
H      -0.53826176      1.56000794      0.06549951
H       1.17828718      1.97803034      0.09858429
H      -2.14517818     -1.55810138     -0.08786393
