12
b3lypvtz=-194858.548229
C       2.15228349     -0.59165301      0.24293755
N       1.40611747      0.21884649     -0.37985547
C       0.03046228      0.28200875     -0.09030549
C      -0.52233113      1.65726381      0.12475620
C      -0.71042190     -0.82529429     -0.12530750
F      -2.05037034     -0.79189801      0.05396899
H       3.20173985     -0.66111378     -0.03161449
H       1.79365669     -1.23146533      1.05561838
H      -0.24786638      2.29806887     -0.71486592
H      -1.60492445      1.63690097      0.22230464
H      -0.09726353      2.10506321      1.02613433
H      -0.34535004     -1.81291666     -0.36525921
