11
b3lypvtz=-155727.23967853
N      -2.06078920     -0.14346698      0.00009634
C      -0.79176592     -0.03408513      0.00014403
C       0.14024595     -1.19127910     -0.00005243
C       1.39075270     -0.71001698      0.00002878
C       1.34451818      0.77591395      0.00002077
C       0.06724338      1.18223310     -0.00005272
H      -2.50122933      0.77878115      0.00008069
H      -0.18786863     -2.21763109     -0.00014236
H       2.30468356     -1.28475454      0.00004975
H       2.22088198      1.40721407      0.00006061
H      -0.30841968      2.19366854     -0.00017446
