12
b3lypvtz=-192256.70951267
C       2.01416140      0.30434707     -0.57689073
C       0.71999975      0.55788500     -0.36980910
C      -0.28040305     -0.43465372     -0.03132915
O       0.21815927     -1.71889316      0.06653960
C      -1.58269675     -0.17320799      0.17677480
O      -2.21490396      1.03703961      0.11524665
H       2.70289309      1.09889587     -0.82644333
H       2.40896016     -0.69842327     -0.50132734
H       0.37535056      1.58299527     -0.45836239
H      -0.49415088     -2.32500817      0.29209388
H      -2.28095943     -0.96179394      0.42772493
H      -1.58641016      1.73091744     -0.10831781
