14
b3lypvtz=-167320.88603107
C       0.11300980     -1.04140292     -0.23980143
C      -1.37342928     -0.65125927     -0.36113662
N      -1.35950183      0.82425181     -0.49745354
C      -0.13471671      1.24141565      0.10235413
C       0.73316785      0.23896125      0.26541123
N       2.03451561      0.24668233      0.79324125
H       0.27110725     -1.88767167      0.43160823
H       0.53864189     -1.31488699     -1.21395080
H      -1.90255656     -0.95281265      0.55038639
H      -1.86863245     -1.11718704     -1.21254961
H      -2.17169501      1.24951491     -0.06902155
H       0.02689104      2.29225386      0.29385724
H       2.68362803     -0.30597468      0.24687755
H       2.40957035      1.17811541      0.91017753
