13
b3lypvtz=-156448.48169836
C       0.46342529      1.09891748     -0.51208470
C       0.18851534      0.33806705      0.82775050
C      -1.26165415      0.11386298      0.28324684
C      -0.34129473     -0.17066299     -0.95131753
C       0.53976298     -0.91979139      0.03151656
N       1.17188283     -2.00316573      0.05986679
H       1.49775773      1.17199841     -0.84219832
H      -0.07051150      2.04263337     -0.62130312
H       0.48813198      0.62466316      1.83219697
H      -1.82395857     -0.72472630      0.68914674
H      -1.86743424      1.01656644      0.20717892
H      -0.63848759     -0.46037365     -1.95431092
H       1.65386462     -2.12798883      0.95031127
