12
b3lypvtz=-192277.43318875
C      -1.37204672      1.31363410      0.00005209
C      -0.89264540     -0.09969085      0.00001230
O      -1.94506780     -0.95199459     -0.00003789
C       0.38305656     -0.54070440      0.00002108
C       1.56686109      0.29793444      0.00002775
O       2.70233100     -0.13495205     -0.00002999
H      -1.99694403      1.48463820     -0.87851043
H      -1.99695641      1.48458021      0.87861722
H      -0.55737493      2.02976133      0.00008413
H      -1.62802953     -1.86377727     -0.00006014
H       0.57692152     -1.60911168      0.00001132
H       1.39575864      1.39184757     -0.00009445
