17
b3lypvtz=-157997.62174744
C       2.74270284     -0.12568835     -0.22211614
C       1.40478330      0.45367505      0.21584370
N       0.34389728     -0.54589818      0.11634502
C      -0.95520184     -0.08503558      0.52098886
C      -2.17845107     -0.61089528     -0.15525285
C      -1.79995769      0.84436161     -0.32755738
H       2.99651525     -1.00229377      0.37463642
H       3.53931081      0.61180700     -0.11475516
H       2.71466995     -0.42972465     -1.27170285
H       1.46508704      0.76761089      1.26171499
H       1.18164655      1.36151967     -0.36641892
H       0.30848242     -0.92874066     -0.82106790
H      -1.02646729      0.06223600      1.59313735
H      -2.03748493     -1.26766140     -1.00447765
H      -3.04049398     -0.85638283      0.44910520
H      -1.40107995      1.14179032     -1.28852581
H      -2.40667369      1.59642216      0.15891913
