12
b3lypvtz=-189862.60410536
C       1.04351532     -1.41311580     -0.34172746
C       0.80218432     -0.11189418     -0.18924997
N       1.52194964      0.80009041      0.56519581
O      -0.28667764      0.50057453     -0.79530644
C      -1.53005602      0.39599716     -0.20401416
N      -1.88502746     -0.23979772      0.81454455
H       0.35905111     -2.03162090     -0.89850121
H       1.92474041     -1.86849535      0.08481653
H       2.45262980      0.50650520      0.81739334
H       1.49196897      1.74195235      0.20527124
H      -2.22978326      0.98432783     -0.78858330
H      -1.11489519     -0.75327454      1.24448009
