13
b3lypvtz=-156498.38245654
C       2.80263574     -0.45626506     -0.01291951
C       1.50554830      0.22429357     -0.31655153
C       0.40639130      0.13787793      0.42170749
C      -0.88322935      0.85234101      0.09834310
C      -2.01364846     -0.06592881     -0.05554804
N      -2.89544670     -0.79630053     -0.16699882
H       2.74370731     -1.04592251      0.90180794
H       3.09364552     -1.12106470     -0.83041281
H       3.60985966      0.27220142      0.10039341
H       1.48291960      0.83214300     -1.21788514
H       0.39907668     -0.47010813      1.32049180
H      -0.77963416      1.43194589     -0.82095129
H      -1.14145442      1.55900391      0.89357740
