11
b3lypvtz=-176610.22695173803
C       1.39085129     -0.73968969     -0.53915653
N       0.05089158     -0.64036275     -0.15404797
C      -0.64065875      0.40373825      0.22036572
N      -1.96117682      0.35328972      0.57337704
C       2.16753999      0.40094150     -0.55030735
N       2.75582307      1.40854771     -0.53332403
H       1.74003805     -1.71738518     -0.80797502
H      -0.44005075     -1.52429451     -0.17576894
H      -0.14090117      1.35915545      0.25240754
H      -2.49315192     -0.49688566      0.56851898
H      -2.42920458      1.19294515      0.85108414
