13
b3lypvtz=-179758.3944233
O      -1.60376824      1.00482536     -0.88642000
C      -1.71999529     -0.23827572     -0.33142087
C      -0.80244744     -1.00191731      0.26469098
N       0.58379737     -0.77936931      0.51779361
C       1.42992456     -0.07041399     -0.44174461
C       1.09142701      0.54697973      0.86753870
H      -0.70450486      1.33494425     -0.80947535
H      -2.73469616     -0.60115851     -0.42246649
H      -1.15008377     -1.96115947      0.62641035
H       2.40971738     -0.50509397     -0.59827588
H       0.97715270      0.32694552     -1.34407240
H       0.39859566      1.38157218      0.89269665
H       1.82468108      0.56222124      1.66474534
