14
b3lypvtz=-169687.14891832
O       1.49716968     -0.12935387     -1.47211867
C       0.50636618     -0.04672952     -0.50457076
C      -0.17594761      1.22713089      0.07888958
C      -0.88962062      0.00527468      0.71946098
C       0.50859778     -0.63463273      0.93871255
C      -0.89970213     -0.65046117     -0.69188240
H       2.28952351      0.31140861     -1.14771676
H      -0.76102766      1.82703850     -0.61783041
H       0.42432560      1.84563373      0.74766969
H      -1.70781844      0.03316245      1.43097594
H       0.54330401     -1.72077855      1.02051494
H       1.15739119     -0.14812296      1.66839260
H      -1.53272692     -0.18169511     -1.44481383
H      -0.95983456     -1.73797493     -0.72568345
