12
b3lypvtz=-145627.98105877
C      -3.34191493      0.00010200     -0.00023558
C      -1.88988851      0.00078421      0.00028239
C      -0.68208113      0.00114019      0.00048427
C       0.68208160      0.00116469      0.00049756
C       1.88988893      0.00092518      0.00025309
C       3.34191495      0.00020795     -0.00027333
H      -3.73529667      1.01102585     -0.12825944
H      -3.73499837     -0.39491747      0.93921208
H      -3.73415399     -0.61641266     -0.81214932
H       3.73537367      1.01416057     -0.10125175
H       3.73495789     -0.41981159      0.92828490
H       3.73411556     -0.59440691     -0.82836886
