15
b3lypvtz=-180553.92489265496
C      -1.22597444      1.33145459     -0.17257120
C      -0.20868645      0.22207327     -0.15541211
C      -0.67350766     -1.09247400      0.40036329
O      -0.88530097     -1.06237393      1.82095313
C       1.04954766      0.43267184     -0.57056175
N       2.13469426     -0.44337987     -0.52683819
H       1.91039351     -1.42081871     -0.42373584
H       2.81802141     -0.29789644     -1.25280130
H      -0.09857897     -0.67694516      2.22056163
H      -0.79634885      2.26803111     -0.52988142
H      -2.07454047      1.08304606     -0.81852329
H      -1.63454930      1.50695100      0.82602262
H      -1.64718240     -1.35756280     -0.01808642
H       0.01238712     -1.90839292      0.14221298
H       1.31962557      1.41561595     -0.94170214
