14
b3lypvtz=-169744.07639581
C       1.16800292      0.22868986     -0.27146969
C       0.47208938     -1.12564993     -0.01636554
C      -1.01902242     -0.82021182     -0.20226552
C      -1.17818898      0.64423336      0.20708149
O      -2.22251688      1.21520194      0.39104962
C       0.21449082      1.26016449      0.34328587
H       1.25791820      0.39962369     -1.34718214
H       2.17280648      0.26922548      0.14711015
H       0.66070112     -1.44912040      1.01039691
H       0.83484509     -1.91378898     -0.67492654
H      -1.70174808     -1.45567103      0.36016600
H      -1.30945234     -0.89195015     -1.25573015
H       0.24459068      2.25217105     -0.10528768
H       0.40548400      1.38708243      1.41413723
