13
b3lypvtz=-203099.30904045
C       0.77473390     -0.46161540     -0.46822682
C      -0.47599764      0.16441615      0.15502216
C      -1.72378604     -0.55797661     -0.28733231
O      -2.63514680      0.00932153     -0.83862925
O      -0.55233751      1.53481645     -0.16001069
N       1.95851476      0.17072303      0.10523195
H       0.69274889     -0.36408181     -1.56059386
H       0.79743289     -1.52869684     -0.22946824
H      -0.39671557      0.03754656      1.24579368
H      -1.76453084     -1.64296112     -0.07660659
H      -1.40890865      1.66991874     -0.59375001
H       2.79998924     -0.19649951     -0.32188973
H       1.93400337      1.16508884     -0.09079732
