15
b3lypvtz=-180546.74530576
C       2.03094131     -0.93870957     -0.29918038
C       0.86249778     -0.82809764      0.32040009
C       0.03995849      0.42846468      0.41551744
O       0.72846013      1.58593524     -0.04173382
C      -1.25773350      0.35857559     -0.41708166
N      -2.21491576     -0.67728419     -0.05327911
H       2.56676573     -1.87792483     -0.32703416
H       2.48337969     -0.09729547     -0.80817198
H       0.43632033     -1.69669473      0.81320279
H      -0.25594568      0.55882144      1.46873719
H       1.54399886      1.67620348      0.46162897
H      -0.98016602      0.22939520     -1.46466823
H      -1.74525221      1.33148722     -0.33480882
H      -1.83232702     -1.60422710     -0.18735110
H      -2.49888713     -0.59844730      0.91567977
