11
b3lypvtz=-179007.69797473
C      -2.63205923     -0.44008459     -0.00001980
C      -1.44943038     -0.23473914     -0.00000705
C      -0.04855717      0.08417893      0.00000267
O       0.24357616      1.42534408     -0.00000389
N       0.83679947     -0.81281581     -0.00000640
C       2.23305781     -0.40329923     -0.00000431
H      -3.67296311     -0.64998583     -0.00003938
H      -0.57615263      1.93274823      0.00000313
H       2.85999853     -1.29215776      0.00004153
H       2.47582096      0.19949139     -0.88001313
H       2.47580360      0.19957672      0.87995065
