14
b3lypvtz=-146393.74974524
C       2.58118222      0.14036677     -0.45890868
C       1.56045893     -0.22799078      0.05252235
C       0.31310498     -0.67523667      0.67050241
C      -0.93252130     -0.06565416      0.04802209
C      -1.86453486     -0.83729516     -0.50127401
C      -1.04521864      1.42985145      0.11858345
H       3.48570824      0.46029373     -0.91224613
H       0.25530109     -1.76413055      0.61520693
H       0.34386161     -0.41718885      1.73579923
H      -1.76119373     -1.91415958     -0.54265669
H      -2.76483033     -0.41611113     -0.93018368
H      -0.19983737      1.90778638     -0.38143321
H      -1.96598773      1.78159971     -0.34425776
H      -1.02983012      1.77258084      1.15769369
