9
b3lypvtz=-196712.41498602
N      -2.11562592     -0.21414226     -0.30576125
N      -1.10894383     -0.67541564      0.24434708
C       0.01693699      0.24243850      0.18456067
N      -0.01308889      1.49867218      0.14239347
N       1.23336884     -0.47357130      0.41140322
N       2.10733350     -0.28432403     -0.43940806
H      -2.86440198     -0.91121224     -0.19295465
H      -0.98347718      1.81649852      0.08151473
H       2.94124247     -0.80485572     -0.12633720
