10
b3lypvtz=-212426.69615545
N      -1.25200765     -0.96836278     -1.11676701
C      -0.96066013      0.09397505     -0.49762680
O      -1.84798792      1.08545404     -0.23752806
N       0.31585332      0.40960626      0.01251570
C       1.24404619     -0.43762819     -0.16209800
O       2.48116534     -0.22986636      0.28245752
H      -2.23102696     -0.97500566     -1.38844125
H      -1.37424775      1.77652260      0.24302658
H       1.12753992     -1.38825234     -0.67566750
H       2.49732564      0.63355739      0.72422881
