10
b3lypvtz=-189122.49832871
N      -2.65235671      0.17108196      0.01689689
C      -1.59880062     -0.30873193     -0.00141326
C      -0.29719376     -0.84099008     -0.01701885
C       0.79096421     -0.02101083     -0.00365833
N       0.75622529      1.33164413     -0.04927211
O       2.05970552     -0.48208492      0.02166121
H      -0.16952712     -1.91283255     -0.04847349
H       1.57992900      1.82898284      0.24095457
H      -0.13136921      1.78663295      0.08081492
H       2.05300840     -1.44435356      0.05928845
