15
b3lypvtz=-157221.57107978
C      -2.46805251     -0.85747329     -0.11528130
C      -1.64947454     -0.03419548      0.19036170
C      -0.62286222      0.94467228      0.52344331
C       0.54507687      0.96240373     -0.50048299
N       1.27645387     -0.27640143     -0.68269144
C       2.00243009     -0.75802815      0.48394235
H      -3.20486272     -1.57619251     -0.37329030
H      -1.06860692      1.94296084      0.56342263
H      -0.23910086      0.73904667      1.52607194
H       0.14585695      1.26595428     -1.47005654
H       1.25192121      1.73584463     -0.18771835
H       0.65566884     -0.99478594     -1.03431964
H       2.53905933     -1.67003191      0.22117995
H       1.38040901     -0.97835661      1.36376235
H       2.74590559     -0.01406011      0.77982534
