13
b3lypvtz=-179752.99572084
C       0.16460068      1.71275868      0.00000025
C      -0.17553291      0.42108933      0.00000083
C       0.72426563     -0.77592469     -0.00000008
C       2.21804578     -0.46655833      0.00000013
N      -1.60846227      0.22840205      0.00000087
O      -1.96258479     -0.93106179     -0.00000002
H      -0.61907507      2.45833147      0.00000048
H       1.19158765      2.04726260     -0.00000023
H       0.46211411     -1.39313513      0.86393967
H       0.46211417     -1.39313428     -0.86394046
H       2.51205010      0.10418716     -0.88256279
H       2.51204987      0.10418655      0.88256352
H       2.79410906     -1.39192462     -0.00000017
