12
b3lypvtz=-189858.49704958
N       2.12314517     -0.68093748     -0.70456023
C       1.13598762     -0.29441879     -0.01876336
O       1.21296290      0.25575955      1.21714599
C      -0.25543888     -0.40232691     -0.55473619
C      -1.11797793      0.80432858     -0.67735126
N      -1.30850800     -0.12857640      0.43645400
H       2.99563217     -0.52829642     -0.20023895
H       0.29803665      0.30289465      1.55590070
H      -0.39586073     -1.19153500     -1.27990332
H      -1.84657498      0.81504902     -1.47799757
H      -0.72509583      1.77342220     -0.39873227
H      -2.11640815     -0.72546299      0.30868247
