8
b3lypvtz=-239978.38923304
C       1.46761859      0.10372970      0.03629513
N       0.47273929     -0.65674383      0.00924645
C      -0.77907173     -0.01029518      0.15803892
O      -0.97967026      1.17004706      0.30493347
O      -1.75136997     -0.93163393      0.11095021
F       2.68275194     -0.40141222     -0.09400392
H       1.47614106      1.18432790      0.15887543
H      -2.58913893     -0.45801950      0.21516286
