15
b3lypvtz=-180558.14275406
C       2.34722283     -0.15165887     -0.51219951
C       1.28155323     -0.48309704      0.54186994
C      -0.09358669      0.02475175      0.21143095
N      -0.35280897      1.44144196      0.10114960
C      -1.14836392     -0.77243464      0.01539528
O      -2.39312000     -0.32042187     -0.26897640
H       2.44023264      0.92610108     -0.66156723
H       3.32730905     -0.52218714     -0.20714549
H       2.09775447     -0.60339902     -1.47383992
H       1.23393751     -1.56606601      0.68037180
H       1.60135942     -0.06690420      1.50589587
H       0.16381957      1.86467623     -0.66179709
H      -0.08976912      1.93676149      0.94679773
H      -1.09078735     -1.85087399      0.07073261
H      -2.30834269      0.64992228     -0.27420216
