17
b3lypvtz=-181310.90459359
C      -1.84924676     -0.69499365      0.36215360
C      -1.10061387      0.41739997     -0.37125766
C       0.32740803     -0.00313929     -0.73351399
O       1.05825265     -0.23692796      0.45655143
C       2.40171203     -0.59779847      0.22676427
N      -1.16834645      1.65311153      0.41684444
H      -2.87218237     -0.38279985      0.56758117
H      -1.36182519     -0.92477512      1.31030738
H      -1.87348103     -1.61015971     -0.23231022
H      -1.61416199      0.61281200     -1.31799431
H       0.31494193     -0.91055768     -1.35530031
H       0.81141970      0.79313328     -1.31848538
H       2.47646793     -1.52664492     -0.35262894
H       2.87056360     -0.74899879      1.19775665
H       2.94420468      0.18960380     -0.31217031
H      -0.76821643      2.42524070     -0.10507043
H      -0.59689646      1.54549417      1.24846577
