16
b3lypvtz=-168061.6547652
C      -2.01492602     -1.00797010     -0.11036269
C      -0.95705155     -0.07973597      0.42529116
C      -0.84886260      1.34528807      0.01746546
N       0.09455426      0.35337013     -0.49080994
C       1.44247515      0.42463497      0.05628908
N       2.11151046     -0.85667960     -0.10208872
H      -2.92044726     -0.95978134      0.49881131
H      -1.66281681     -2.04179294     -0.11271232
H      -2.27200516     -0.73992579     -1.13501458
H      -0.63900075     -0.28376921      1.44737857
H      -0.49542744      2.05505115      0.76010796
H      -1.53231938      1.75716005     -0.71558276
H       1.41081538      0.77879203      1.10629277
H       1.99575580      1.16828661     -0.52155164
H       3.10282995     -0.76197453      0.07923284
H       1.75039597     -1.53626455      0.55700351
