15
b3lypvtz=-180534.49581882
C      -1.60089308     -1.10644696     -0.08135747
C      -0.67110620      0.04694637      0.26318844
O      -1.23045433      1.30488868     -0.09227531
N       0.55808042     -0.06059983     -0.49661023
C       1.69772455      0.67521338      0.03507578
C       1.63958211     -0.80474538      0.14078928
H      -1.81748772     -1.09076790     -1.14885839
H      -2.53731510     -1.02507798      0.47484522
H      -1.14271852     -2.06362309      0.17226459
H      -0.45727630      0.04206453      1.34944872
H      -2.07579073      1.39685457      0.35744140
H       2.32995423      1.15042508     -0.70325948
H       1.54618130      1.24733712      0.94431334
H       2.22705724     -1.43130619     -0.51775277
H       1.45917612     -1.22286539      1.12664390
