15
b3lypvtz=-203862.58188329
C      -2.35842260     -0.35033715     -0.47272068
C      -1.41118058      0.39878148      0.45417013
O      -0.17813465     -0.30464918      0.65844223
C       0.83020650     -0.05681042     -0.28190944
N       1.95572220     -0.91786895     -0.06745789
O       1.22730640      1.29186063     -0.13233737
H      -2.55885004     -1.35116311     -0.08863272
H      -3.30776037      0.18410884     -0.55012575
H      -1.94992488     -0.44573154     -1.47988553
H      -1.20578414      1.40553698      0.08617076
H      -1.85412341      0.49475955      1.44566374
H       0.45181709     -0.22974829     -1.29910696
H       2.21197023     -0.88223863      0.91445668
H       1.71439769     -1.87630455     -0.29047020
H       2.04399556      1.39877433     -0.63163999
