13
b3lypvtz=-177397.91534107
C       2.63598511     -0.17219614      0.00168687
N       1.29691213      0.37129557      0.03253672
C       0.31373910     -0.41412998     -0.02613438
C      -1.09224841      0.10550546     -0.00318919
N      -1.41538126      1.33592244      0.00193677
N      -2.04990532     -0.88924075     -0.04757112
H       3.16710061      0.14190302      0.90246103
H       2.66705187     -1.26688031     -0.07129674
H       3.17322660      0.25768983     -0.84605826
H       0.43977812     -1.50397751     -0.10226040
H      -0.56887887      1.90118274     -0.03067200
H      -2.98965560     -0.57409472      0.13540750
H      -1.81829209     -1.78321765      0.35230720
