15
b3lypvtz=-157249.24611756
C      -1.99726766     -1.08995722      0.00000496
C      -1.08143617     -0.11607868      0.00002119
C      -1.42900384      1.34376359     -0.00004174
C       0.33998043     -0.48438699      0.00008385
N       1.26535880      0.38199087     -0.00002174
C       2.64267993     -0.09393358     -0.00005696
H      -1.70740988     -2.13350664      0.00006994
H      -3.05780109     -0.87636738     -0.00005537
H      -1.00076794      1.84022542     -0.87227808
H      -1.00090181      1.84026589      0.87223823
H      -2.50812320      1.49081803     -0.00012425
H       0.54769831     -1.56477461      0.00008862
H       2.85709258     -0.70165652      0.88469158
H       2.85717657     -0.70109189     -0.88517153
H       3.32312998      0.75572470      0.00022730
