11
b3lypvtz=-176595.08921439
C       1.81741730     -1.02172607      0.19897220
N       1.69728664      0.11134068     -0.34665662
C       0.75358402      1.03677115      0.04770463
C      -0.58164721      0.85731919      0.11383552
N      -1.16517753     -0.38039572     -0.15149525
N      -2.40691638     -0.39197635      0.00735099
H       2.52916151     -1.73202232     -0.21340410
H       1.24349402     -1.32406280      1.07726425
H       1.14936321      2.03297645      0.21054856
H      -1.24177162      1.69066219      0.33356506
H      -2.72223796     -1.34085040     -0.23236325
