12
b3lypvtz=-189869.30337141
C       2.03521229     -0.80964562     -0.31320070
C       0.71762179     -0.65596325     -0.43601371
N      -0.01360174      0.42219540      0.05192349
C      -1.39361854      0.60162502     -0.03151641
N      -2.02193803      1.69706504      0.03323716
O      -2.10183225     -0.54637064     -0.19462147
H       2.52173779     -1.66662705     -0.75083632
H       2.65591115     -0.09099651      0.20593481
H       0.12558712     -1.38617983     -0.97155174
H       0.50605422      1.22730855      0.36110883
H      -1.39111658      2.49278116      0.03440413
H      -1.64001722     -1.28529227      0.21703193
