16
b3lypvtz=-170477.15668307
C       1.69731984     -1.08256663      0.04657877
C       0.73717839      0.04870420     -0.28332508
O       1.41378977      1.26657110      0.04846452
C      -0.57626704     -0.06242029      0.45385609
C      -1.79138824      0.66476503     -0.06557358
C      -1.71834470     -0.83751115     -0.13889331
H       1.91746137     -1.09038044      1.11529733
H       2.63510443     -0.95189023     -0.49336586
H       1.26609521     -2.04559657     -0.22875818
H       0.52581373      0.03183717     -1.36273357
H       0.78331992      1.98879388     -0.03873663
H      -0.46942042     -0.10469508      1.53207300
H      -1.69701241      1.21341627     -0.99457635
H      -2.46854207      1.11257159      0.64828333
H      -2.34563960     -1.41588885      0.52484462
H      -1.57332119     -1.28425502     -1.11386510
