15
b3lypvtz=-180532.02188782
C      -2.52613002     -0.28311385      0.00000188
O      -1.26887030      0.37781018     -0.00001609
N      -0.24732567     -0.58767950     -0.00000976
C       0.91093639     -0.05174341     -0.00000633
C       1.14770323      1.43197316     -0.00000005
C       2.08219613     -0.98741687     -0.00000879
H      -2.64397776     -0.90456379     -0.89043798
H      -2.64395486     -0.90455835      0.89044851
H      -3.27633729      0.50600127      0.00000925
H       2.21167673      1.66146617      0.00007843
H       0.68336833      1.89208108      0.87398266
H       0.68350833      1.89206226     -0.87406832
H       2.71052680     -0.81613455     -0.87836458
H       2.71051477     -0.81615288      0.87835913
H       1.74645018     -2.02203692     -0.00002196
