13
b3lypvtz=-156506.89310398
C      -2.07098602     -0.00000621      0.02458558
N      -0.62376812      0.00001485     -0.03533378
C       0.17357087     -1.11595651     -0.01276519
C       1.48666112     -0.70953021      0.01438529
C       1.48667075      0.70952990      0.01440858
C       0.17358565      1.11597782     -0.01274876
H      -2.45894520      0.88278242     -0.48127091
H      -2.45891711     -0.88269047     -0.48148549
H      -2.43219338     -0.00012878      1.05571521
H      -0.25884261     -2.10192077     -0.02124079
H       2.34696735     -1.35729776      0.02038806
H       2.34698964      1.35728065      0.02045281
H      -0.25880594      2.10195208     -0.02122661
