15
b3lypvtz=-180553.2354982
C       1.93312216     -0.96156563      0.32641178
N       1.30549457     -0.06598944     -0.63821167
C       0.66490752      1.11008512     -0.05817719
C      -0.65486320      0.74544115      0.62324766
C      -1.60435598      0.04931205     -0.32244685
O      -2.29686802     -0.89012705     -0.02944005
H       2.62923893     -0.45432385      1.01262804
H       2.48225825     -1.73644582     -0.20765695
H       1.17423663     -1.46131537      0.92930477
H       1.98704102      0.22400417     -1.32623975
H       0.46255313      1.81016536     -0.87241507
H       1.30770684      1.63792191      0.66444724
H      -1.14549876      1.66447113      0.96535017
H      -0.51203071      0.11452221      1.50036686
H      -1.64800739      0.48671706     -1.34283399
