12
b3lypvtz=-168916.72529127
C       2.72705981     -0.27286234      0.04796299
C       1.63630965     -0.08782536     -0.41638406
C       0.31421058      0.11081487     -0.98528946
C      -0.86547166     -0.69053755     -0.37712114
C      -1.49785877      0.68791078     -0.13104057
O      -0.30722716      1.36794120     -0.60072823
H       3.69258178     -0.42463924      0.46190915
H       0.37343858      0.03473624     -2.07558436
H      -1.38504404     -1.34910717     -1.06843308
H      -0.60195863     -1.23761981      0.52363574
H      -2.36392901      0.92121558     -0.75522751
H      -1.72211114      0.93997280      0.90653725
