14
b3lypvtz=-167329.58576594
C       2.64867937     -0.21004899      0.19540985
C       1.45983321      0.14963776     -0.29183879
N       0.30289115     -0.60759398     -0.13435659
C      -0.84087317     -0.03344210     -0.05968549
C      -2.09125764     -0.86679423     -0.02475907
N      -1.04715152      1.32907816     -0.03072226
H       2.76014154     -1.11350866      0.77982740
H       3.52646875      0.39291625      0.01309365
H       1.39138336      1.05642368     -0.89740648
H      -2.63655458     -0.71255445      0.91009995
H      -2.75957980     -0.59392262     -0.84514139
H      -1.82613726     -1.91553637     -0.11336334
H      -1.96005891      1.66605773      0.21933146
H      -0.28303751      1.92113481      0.24653711
