11
b3lypvtz=-204937.04687754
N      -2.32873030     -0.73551476     -0.03084562
C      -1.52580798      0.25249177      0.04293805
C      -0.07389875      0.28222717      0.00605627
F       0.45449730      1.54863623     -0.03163371
C       0.79557447     -0.73895186      0.03176641
N       2.15713084     -0.61320816     -0.06130317
H      -1.83343462     -1.62003214     -0.15861552
H      -1.96393310      1.24611968      0.15707458
H       0.41066993     -1.74746207      0.08788573
H       2.71835054     -1.35402135      0.32113498
H       2.53452066      0.31147250      0.06933800
