12
b3lypvtz=-192266.06348892
C      -0.99032645      0.16453955     -0.91610343
C      -1.49678602      0.12853205      0.51118575
C      -0.13707053     -0.37854079      0.18366523
O       0.93859307      0.43182816      0.64982558
C       2.17317021      0.07857816      0.25222803
O       2.45569472     -0.85458922     -0.44382024
H      -0.71826535      1.13083107     -1.31621568
H      -1.39266745     -0.53250523     -1.63745467
H      -2.25694289     -0.59047153      0.78176981
H      -1.55218219      1.07090237      1.03735962
H       0.08218908     -1.43500112      0.21649936
H       2.89459379      0.78589653      0.68106063
