13
b3lypvtz=-177359.8829896
N       2.34059453     -0.82630562     -0.00911824
N       2.08472188      0.38879923     -0.08176262
C       0.71133239      0.71163901     -0.21959598
C      -0.28674185      0.06338854      0.38170696
C      -1.73189873      0.45342463      0.28448361
N      -2.58489786     -0.56993578     -0.33585341
H       3.35548229     -0.90119104      0.14653983
H       0.54858582      1.63032732     -0.77117597
H      -0.04567675     -0.81585067      0.97103482
H      -1.83174411      1.37789173     -0.28815960
H      -2.13611151      0.65698879      1.27975258
H      -2.60873830     -1.40731688      0.23498634
H      -2.20063978     -0.84309527     -1.23356031
