15
b3lypvtz=-180540.46655264
C      -1.18241904     -1.24664179     -0.00000374
C      -0.42240992      0.06351727     -0.00000062
O      -1.38422573      1.09858506      0.00000134
C       0.71691392      0.13488258      1.05538448
N       1.66642753     -0.28676212     -0.00000068
C       0.71691464      0.13488724     -1.05538463
H      -0.48812822     -2.08624885     -0.00000525
H      -1.81745871     -1.31176456      0.88456197
H      -1.81745800     -1.31176079     -0.88457024
H      -0.92853845      1.94639615      0.00000335
H       0.85623630      1.16564298      1.40735443
H       0.65913995     -0.53051133      1.91912485
H       2.56133920      0.18467883      0.00000066
H       0.65914129     -0.53050285     -1.91912798
H       0.85623724      1.16564920     -1.40734992
