13
b3lypvtz=-179776.63427255355
C      -1.49445305     -0.03151433      0.09658218
C      -0.03328555      0.27715847      0.41082808
C       0.91353958     -0.92436297      0.32454346
O       1.79262518     -0.63119776     -0.81964396
C       1.58512452      0.58917421     -1.32112215
N       0.59620880      1.13413700     -0.61815145
H      -2.08946706      0.88288195      0.06100076
H      -1.58225055     -0.53323189     -0.86803764
H      -1.92542929     -0.67685488      0.86409894
H       0.03779482      0.76310090      1.38571367
H       0.40168996     -1.86279023      0.11904881
H       1.54595932     -1.03924989      1.20286580
H       0.25194333      2.05274943     -0.83772652
