14
b3lypvtz=-213937.11546889
C       2.05306043      0.02995666      0.02296504
N       0.82040893     -0.73431573      0.18548913
C      -0.42651904     -0.02804696     -0.01363923
N      -0.63314570      1.06384681      0.91609268
O      -1.46670002     -0.96261348      0.12208259
O      -0.46920665      0.50284132     -1.31879514
H       2.89862753     -0.62689009      0.22478837
H       2.12761721      0.90708650      0.67664762
H       2.13540403      0.36293491     -1.01081087
H       0.79022851     -1.21532234      1.07514182
H      -0.50994945      0.74034345      1.86822286
H      -1.58952115      1.39177688      0.82997381
H      -1.28318163     -1.67524385     -0.50285817
H      -0.18953299      1.42224992     -1.26063552
