13
b3lypvtz=-203100.04785755
O       1.97954175      0.01703074      0.17303345
C       0.85934260     -0.67372074     -0.36863001
N       0.06429649      0.23567827     -1.14623685
C      -0.81943112      0.89236916     -0.17178449
C      -1.12321499     -0.27616806      0.76364701
O       0.01164128     -1.15279287      0.64223683
H       2.46075952     -0.59250521      0.74409880
H       1.20787063     -1.52843569     -0.95457443
H       0.65116668      0.88756451     -1.65011600
H      -0.32850589      1.70792954      0.36926480
H      -1.71423746      1.27878379     -0.65885715
H      -2.01547482     -0.82447584      0.45393796
H      -1.23375465      0.02864240      1.80408007
