10
b3lypvtz=-217371.80018943
C       1.87643784     -0.04465666      0.03137504
C       1.05066078      0.67924473     -0.70655595
O      -0.31702388      0.57332377     -0.81615260
N      -0.84676908     -0.44439969     -0.02525414
C      -2.09836401     -0.53467783     -0.13330929
F      -2.86462823      0.23401003     -0.90346448
H       2.93143579      0.18019264     -0.00627032
H       1.53650205     -0.84690190      0.66586655
H       1.36979741      1.48794295     -1.34945891
H      -2.63804866     -1.28417806      0.42722412
