13
b3lypvtz=-179793.09817587
C      -2.70826417      0.64662193      0.00968247
C      -1.75432297     -0.16640079     -0.42262402
C      -0.62754136     -0.68845491      0.42326760
N       0.65519467     -0.49533175     -0.24094628
C       1.53223530      0.19092962      0.33969408
O       2.74717590      0.43045812     -0.19397957
H      -3.50870847      0.97688284     -0.63929771
H      -2.72721586      1.01024112      1.03078572
H      -1.75280693     -0.50550033     -1.45343295
H      -0.76320399     -1.76689095      0.56233671
H      -0.66295943     -0.22612304      1.41881296
H       1.43678323      0.66650666      1.31784627
H       2.76933408     -0.01222853     -1.05541728
