14
b3lypvtz=-167305.64170496
C      -1.81851434     -0.74960521      0.36120271
C      -0.72425564      0.26635877      0.17631154
N      -0.86129653      1.42315631      0.68433848
C       0.45871212     -0.22351901     -0.60679344
C       1.81064777     -0.20254664      0.02832871
N       1.50262370      0.67575655     -1.09802960
H      -2.24802811     -1.02583259     -0.60536176
H      -1.42288055     -1.66626160      0.80616744
H      -2.60050859     -0.34421532      0.99777829
H      -0.06263045      2.02994209      0.48365992
H       0.23829553     -1.03923743     -1.28565410
H       1.87523670      0.22546842      1.02180658
H       2.51598943     -0.99661833     -0.18211337
H       1.33660895      1.62715399     -0.78164142
