14
b3lypvtz=-167312.43271289
C       0.05341157      1.46514776     -0.06322666
C       0.10834155      0.13436958     -0.03938801
C       1.38928795     -0.60156532     -0.19155996
N       2.55588796     -0.24049023      0.15545022
C      -1.11652483     -0.74210157      0.10192897
N      -2.36845958      0.00502272      0.06238616
H      -0.88532426      1.98383691      0.06703147
H       0.94341384      2.06207686     -0.21573099
H       1.30301474     -1.59011333     -0.65169861
H       2.53119753      0.67791989      0.60548603
H      -1.06338293     -1.25831508      1.06629719
H      -1.04829046     -1.53438863     -0.65981137
H      -3.14365414     -0.58814811      0.32856496
H      -2.55555692      0.33876355     -0.87605541
