10
b3lypvtz=-189108.4750984
N       1.61435172     -1.65546223     -0.00801461
C       0.98898568     -0.68237463     -0.02273848
C       0.19471571      0.49434386      0.00545527
O       0.83206418      1.72278274     -0.10553374
C      -1.15176198      0.43848863      0.04078751
N      -1.92041146     -0.69021317     -0.05801355
H       1.51498592      1.78886769      0.57109414
H      -1.69058722      1.37618964      0.08039341
H      -1.46340613     -1.58256286      0.05032182
H      -2.84885442     -0.64773466      0.32417523
