12
b3lypvtz=-168916.80177212
C       2.61524257     -0.00000607     -0.25602339
C       1.47798369      0.00000848      0.12788447
C       0.10149210      0.00000820      0.57377314
C      -0.88313551     -1.03541515     -0.03120794
O      -1.84057184     -0.00000786     -0.33730072
C      -0.88314386      1.03541268     -0.03122652
H       3.62133862     -0.00000046     -0.59397428
H       0.05968317      0.00001810      1.66314608
H      -0.50637729     -1.52478530     -0.93255045
H      -1.28697306     -1.77984807      0.65604126
H      -1.28698765      1.77985460      0.65600925
H      -0.50638993      1.52476986     -0.93257790
