14
b3lypvtz=-190625.19077914
N       2.40391324     -0.14022003     -0.24597817
C       1.13138446     -0.71078098     -0.02290044
C       0.03268380      0.03123298      0.16744601
N       0.08405767      1.44086021      0.20239751
C      -1.30125883     -0.57800395      0.45285308
O      -2.32132853     -0.12953136     -0.45305738
H       3.15129645     -0.81621150     -0.21808503
H       2.61286227      0.61473380      0.39664639
H       1.06446366     -1.78938701     -0.03668689
H      -0.81957686      1.84681878     -0.00097761
H       0.77303919      1.81747270     -0.43710739
H      -1.21716847     -1.66857818      0.45138348
H      -1.66411659     -0.27152772      1.43716519
H      -2.04208145     -0.36716375     -1.34382774
