15
b3lypvtz=-180534.14987285
C       2.00471938      0.29035990     -0.09773335
N       0.72572741      0.03733921      0.52541388
C      -0.11285656     -1.05753484     -0.00173742
C      -1.35378582     -0.17317718      0.27335428
O      -2.34720701     -0.06505995     -0.72222077
C      -0.36899038      1.00449085      0.30467495
H       2.46135021      1.17912551      0.34192303
H       1.92945852      0.44610256     -1.18771249
H       2.67654966     -0.55141973      0.08002779
H      -0.01233878     -2.01221151      0.51899730
H       0.00214953     -1.21211965     -1.08416589
H      -1.79155205     -0.37251619      1.25393515
H      -2.99540205     -0.76424493     -0.59721317
H      -0.33353841      1.48383806     -0.68392060
H      -0.48408365      1.76702789      1.07647732
