13
b3lypvtz=-208092.47408778
O       0.42135527     -0.24001091      1.58293703
C       0.83132599     -1.16057596      0.57916011
C       0.33774014     -0.74024622     -0.76751915
C      -0.38944914      0.32286968     -1.09448647
C      -0.92733969      1.41070359     -0.20919476
F      -1.63618132      2.31985895     -1.00431177
H       0.75484839     -0.53843273      2.43298607
H       0.45167520     -2.16935467      0.79595062
H       1.92744411     -1.23899110      0.54548964
H       0.63067084     -1.41716295     -1.56367070
H      -0.65241937      0.45980736     -2.13770001
H      -1.61442602      1.02841302      0.54510310
H      -0.13534440      1.96322195      0.29535629
