16
b3lypvtz=-147167.99873279
C      -2.19769225      0.01201997     -0.52609169
C      -0.99490830     -0.94131937     -0.57433186
C       0.29513177     -0.28375042     -0.22217301
C       1.45846757     -0.08758614     -0.85358704
C       2.10950958      0.64601845      0.30022973
C       0.74938593      0.42375072      1.04749459
H      -3.12092320     -0.51359864     -0.77430030
H      -2.31840506      0.44526819      0.46812755
H      -2.07379793      0.83241895     -1.23466998
H      -1.17535806     -1.77043410      0.11943334
H      -0.91073526     -1.38297273     -1.57063561
H       1.81787718     -0.35931033     -1.83861819
H       2.96740121      0.15050828      0.75979633
H       2.36775063      1.69182435      0.12076918
H       0.81307763     -0.20286766      1.94037868
H       0.21321855      1.34003045      1.30334970
