13
b3lypvtz=-179786.80322673
C      -2.80573305     -0.32389144      0.00002345
C      -1.48428168     -0.38901882     -0.00002226
O      -0.73350697      0.76837499      0.00002094
C       0.62172392      0.67819334     -0.00002294
N       1.26768675     -0.39594248      0.00002614
C       2.71472842     -0.32289967      0.00007807
H      -3.38383899     -1.23516545     -0.00004741
H      -3.32927108      0.62177828      0.00012335
H      -0.90649733     -1.30085956     -0.00010299
H       1.04752580      1.68359509      0.00014209
H       3.10486248     -0.84124874     -0.87774151
H       3.10479815     -0.84131417      0.87788749
H       3.10473758      0.70335963      0.00012957
