14
b3lypvtz=-167305.4366787942
C      -1.98585861      0.92820475      0.11513997
C      -0.87632441     -0.04107813     -0.22495922
N      -1.07382675     -1.20634472     -0.75414234
C       0.46517957      0.36536759      0.05989674
N       1.42300348     -0.52418850     -0.25627674
C       2.73029059     -0.52533346     -0.15314913
H      -2.55219891      1.18110256     -0.78308031
H      -1.60918488      1.85267263      0.55257508
H      -2.67871553      0.47189716      0.82454165
H      -2.05789399     -1.39510291     -0.91479264
H       0.73989538      1.31006186      0.49774147
H       0.96692538     -1.35606342     -0.65904246
H       3.27143267     -1.39102349     -0.49180364
H       3.23727603      0.32982809      0.26399046
