14
b3lypvtz=-190583.29685987165
C       2.26821679      0.10212609     -0.15752112
N       0.99498353     -0.56416661     -0.40331305
C      -0.15656250      0.23430466      0.00269024
C      -1.40956934     -0.55394103     -0.13773178
N      -2.56927023      0.02738564     -0.22978722
O      -2.82120659      1.26870069     -0.19852940
H       2.35006600      1.09904871     -0.61619641
H       2.41518519      0.21939435      0.91798099
H       3.08097273     -0.51700588     -0.53694506
H       0.91552605     -0.78651801     -1.38861060
H      -0.27199831      1.18271170     -0.54364330
H      -0.01993153      0.51902493      1.05380831
H      -1.39923192     -1.63367344     -0.15866273
H      -3.37717989     -0.59739179     -0.33833087
