9
b3lypvtz=-175847.48757353
N       2.47618817     -0.89568383      0.00017148
C       1.65874540     -0.08256025     -0.00013916
C       0.72077413      0.98576937     -0.00005041
C      -0.60846805      0.82601578      0.00008140
N      -1.16932738     -0.46316070     -0.00004290
N      -2.41513306     -0.43920342      0.00009425
H       1.13912920      1.98378926     -0.00010541
H      -1.28930466      1.67128379      0.00025755
H      -2.72887476     -1.41921601      0.00007819
