13
b3lypvtz=-156440.88490551
C      -1.83786398     -0.13940936      0.59714678
N      -0.58528295     -0.55680516     -0.01614917
C      -0.16239920      0.17227244     -1.19500277
C       0.53480685      0.38278301      0.11390532
C       1.84446352     -0.14335532      0.38778683
C       2.94906390     -0.55354231      0.61498453
H      -2.01834663      0.94346575      0.52468125
H      -1.83408317     -0.42102834      1.65036811
H      -2.66199876     -0.65858818      0.10635459
H       0.32136645     -0.41309982     -1.96592199
H      -0.78648973      0.98821971     -1.54841409
H       0.31550606      1.32646673      0.60682253
H       3.92125761     -0.92737914      0.81766821
