10
b3lypvtz=-217401.59146525
C       1.86830870     -0.28584987     -0.57359924
N       0.70133955     -0.77938526     -0.45136902
C      -0.34862631      0.02140551     -0.05030525
O      -0.10857368      1.33931528      0.20954354
C      -1.55925328     -0.53450207      0.06570192
F      -2.60581330      0.23238347      0.45813791
H       2.67138268     -0.94358857     -0.89089064
H       2.10698166      0.75861486     -0.37822920
H      -0.93594744      1.75871006      0.47610554
H      -1.78979859     -1.56690341     -0.12919556
