10
b3lypvtz=-209954.7843299
N      -2.39371935     -0.30100775     -0.25525992
N      -1.16436109     -0.81811946     -0.05145766
N      -0.25527017     -0.07321023     -0.41730809
O       0.96087126     -0.77033103     -0.21518730
C       2.05905850     -0.03692995     -0.60379600
N       2.14231589      1.10964172     -1.10323320
H      -2.44278214      0.70582032     -0.37137123
H      -3.06908387     -0.70738313      0.37042147
H       2.93489990     -0.64675269     -0.40057170
H       1.22807107      1.53847220     -1.22843637
