15
b3lypvtz=-185561.68467456
C       2.32959910     -0.53993197     -0.08614992
C       1.28290738      0.53213587     -0.09960294
C      -0.03204406      0.43017609      0.10955104
C      -0.94243289      1.62750049      0.04203472
C      -0.72004621     -0.85687510      0.44885211
F      -1.73047258     -1.13090025     -0.49005847
H       2.90207517     -0.52078175     -1.01731064
H       3.04776909     -0.36985828      0.72146700
H       1.92689944     -1.54336038      0.03526204
H       1.66712956      1.52748826     -0.30801294
H      -0.39243295      2.53216897     -0.21402770
H      -1.72593042      1.47628989     -0.70295797
H      -1.44655770      1.79212108      0.99955168
H      -0.04921681     -1.71270308      0.45626241
H      -1.21580111     -0.78629184      1.42187759
