12
b3lypvtz=-189886.01214774
C       2.61011739     -0.07376301     -0.00004089
N       1.22776719      0.35907844     -0.00013913
C       0.31365798     -0.51021744     -0.00013131
C      -1.14413786     -0.12870145     -0.00018687
N      -1.37960237      1.20250344     -0.00013020
O      -2.00444764     -0.99245022     -0.00009838
H       2.72802149     -1.16342045      0.00003353
H       3.11047984      0.34227953      0.87643647
H       3.11057433      0.34217112     -0.87651553
H       0.48697627     -1.59134032     -0.00007641
H      -0.60132004      1.83975949     -0.00014728
H      -2.32618858      1.53776986     -0.00008600
