14
b3lypvtz=-190605.43472268
C       2.19993601     -0.58635336      0.02679264
N       1.27393131      0.52573180     -0.09353166
C      -0.08615179      0.31147545     -0.00499550
C      -0.96748849      1.52670195      0.01623173
N      -0.51392814     -0.89838763      0.00695173
O      -1.94078395     -0.91903155     -0.00768660
H       2.01385979     -1.30510324     -0.77013903
H       3.21592517     -0.20726314     -0.07136634
H       2.10094290     -1.11889266      0.97853226
H       1.58256443      1.39528359      0.30765357
H      -1.63288882      1.49583868      0.87843481
H      -1.60031790      1.54373011     -0.87142741
H      -0.37901185      2.44285411      0.04276116
H      -2.11979367     -1.86294509      0.00291365
