12
b3lypvtz=-189827.57946327
C      -0.48297277      1.30038506     -0.15716360
C      -0.56752898     -0.17314871      0.11149063
C      -1.70728035     -0.83776308      0.31245734
N       0.61039903     -0.96193333      0.16722357
N       1.64579755     -0.32868086     -0.01995289
O       2.73462476     -1.19727673      0.05629052
H      -0.00512426      1.49572130     -1.11873287
H       0.12193849      1.80188500      0.60024680
H      -1.47827316      1.74042521     -0.16211679
H      -1.69054566     -1.90145359      0.50057008
H      -2.66188928     -0.33216706      0.29175864
H       3.48085465     -0.60599320     -0.10240811
