17
b3lypvtz=-158015.51846823
C      -2.74757101      0.04363176      0.15985465
N      -1.45090672      0.08904753     -0.48646026
C      -0.41688599     -0.00005298      0.23039630
C       0.97783034      0.03292905     -0.33150008
C       1.70264864     -1.28701613     -0.03042438
C       1.75105798      1.23360740      0.23289945
H      -3.29824434      0.95697799     -0.07491222
H      -2.69290098     -0.06767856      1.25161401
H      -3.32476558     -0.78732237     -0.25120398
H      -0.48506002     -0.10992928      1.32649393
H       0.87947794      0.14741829     -1.41242970
H       1.78136366     -1.45659582      1.04652791
H       2.71503891     -1.27046460     -0.43758125
H       1.17531735     -2.13607197     -0.46725180
H       1.82786450      1.17617499      1.32173135
H       2.76520734      1.26056262     -0.16927006
H       1.26095299      2.17437707     -0.02072488
