15
b3lypvtz=-157238.28625671
C       1.84385525     -0.95728431      0.06358301
C       0.79707142     -0.13759223      0.02678849
N       0.61895876      1.17266894     -0.43725844
C      -0.70094372      1.31127725      0.20610601
C      -0.65426647     -0.22111452      0.49401159
C      -1.58685122     -1.09446308     -0.33337045
H       1.74076070     -1.95368218      0.46750477
H       2.81587535     -0.66065125     -0.30722188
H       1.34025907      1.87627412     -0.37938362
H      -0.70225117      1.92456974      1.11084801
H      -1.48913378      1.65548816     -0.46638034
H      -0.74499956     -0.46228957      1.55324361
H      -2.62593105     -0.95680662     -0.02612603
H      -1.33868311     -2.15000350     -0.21290197
H      -1.50825046     -0.85100593     -1.39410478
