14
b3lypvtz=-167334.12197545
C      -0.83347793      1.26462713     -0.65940742
C      -0.29333709     -0.00004745      0.02397189
C      -0.83296494     -1.26531184     -0.65872328
N      -0.73580612      0.00027628      1.42320061
C       1.18972634      0.00022579     -0.07385223
N       2.34090398      0.00045625     -0.10779023
H      -1.92053970      1.26507700     -0.58874714
H      -0.53958929      1.29705314     -1.70785957
H      -0.45169066      2.16241088     -0.17186001
H      -0.45069931     -2.16266327     -0.17076373
H      -1.92001586     -1.26620380     -0.58789711
H      -0.53922559     -1.29815512     -1.70720672
H      -0.38175321     -0.81482847      1.91112519
H      -0.38219762      0.81585148      1.91065974
