14
b3lypvtz=-167298.74701992
C      -0.70077422      1.82410555     -0.15831912
C      -0.33732658      0.56495202      0.09806997
C       1.00887271      0.15187613      0.62697299
C       1.93378840     -0.44116287     -0.44715500
N      -1.35189668     -0.40282821     -0.17393022
N      -1.04239750     -1.57339933      0.11607025
H      -1.68606906      2.03076138     -0.55206449
H      -0.03237362      2.65498212      0.01991341
H       0.86391125     -0.58620328      1.41743249
H       1.48307541      1.02620678      1.07550419
H       2.11715507      0.27881955     -1.24622284
H       1.49861225     -1.33727059     -0.88635636
H       2.89612238     -0.71286101     -0.01075788
H      -1.85606682     -2.15712123     -0.11881039
