11
b3lypvtz=-179004.50398916
O       1.33399559      1.72253860      1.04254969
C       0.73043382      0.81690733      0.54481755
C       1.11285523     -0.34800023     -0.38584368
N      -0.16655366     -1.05254900     -0.00550759
C      -1.22881570     -0.19131439     -0.49239674
C      -0.59415698      0.17790143      0.80660072
H       1.22255861     -0.15998450     -1.45410937
H       1.98343172     -0.88306781     -0.00859430
H      -1.05676352      0.42308467     -1.37008703
H      -2.21694673     -0.62834404     -0.42703714
H      -1.12003838      0.12282793      1.74960790
