11
b3lypvtz=-176595.10041544
C       2.77718559     -0.30859168      0.14665099
C       1.57933171     -0.22101453      0.15267054
C       0.16106989     -0.04892574      0.15497785
N      -0.59538513     -1.08354274      0.06594959
N      -1.96092489     -0.79843846      0.08750885
N      -0.32598801      1.26133204      0.20542920
H       3.83376031     -0.40829920      0.14392402
H      -2.20727599     -0.04527448     -0.55455100
H      -2.45319412     -1.63852948     -0.18021376
H      -1.17355726      1.34313492      0.75416174
H       0.36497791      1.94814935      0.46338452
