17
b3lypvtz=-158005.88717045
C       2.32762222      0.00000093     -0.43279297
C       1.06528392     -0.00000028      0.40993059
C      -0.02008917     -1.07789560      0.14248889
C      -1.10195066     -0.00000010      0.38404494
N      -2.23301422      0.00000152     -0.53625986
C      -0.02008907      1.07789594      0.14249208
H       2.94044967      0.88180083     -0.22996740
H       2.94044967     -0.88179955     -0.22996995
H       2.08574565      0.00000248     -1.49807334
H       1.33150813     -0.00000185      1.46962682
H      -0.02961831     -1.96747471      0.77288374
H      -0.02569232     -1.37923536     -0.90675321
H      -1.39698060     -0.00000164      1.44213995
H      -2.81971381      0.81189027     -0.37314317
H      -2.81971689     -0.81188485     -0.37314251
H      -0.02569209      1.37923880     -0.90674914
H      -0.02961815      1.96747319      0.77288955
