15
b3lypvtz=-157230.65055828
C      -1.45652740     -0.98662408      0.35341106
C      -0.36252407     -0.00552921      0.75603689
C       0.87960019      0.01134057     -0.12197347
C       1.88644688     -0.81826253     -0.32873667
C       0.49415718      1.38642827     -0.62708774
N      -0.59951841      1.42671606      0.38763995
H      -1.66244495     -0.93069487     -0.71736016
H      -1.16246916     -2.01124744      0.58853058
H      -2.38016709     -0.77155658      0.89638709
H      -0.15416184     -0.11366399      1.82487977
H       2.68705560     -0.57858473     -1.01778875
H       1.94976915     -1.77074239      0.18310154
H       0.15911028      1.39591927     -1.66977954
H       1.23821842      2.17592921     -0.49843104
H      -1.51654477      1.59057242     -0.00882951
