11
b3lypvtz=-179058.07253394
O      -0.94043781     -2.18779205      0.39522398
C      -0.42765954     -1.10998234      0.19980579
C      -1.10258097      0.24983336     -0.02643205
C       0.05166538      1.19714018     -0.20923922
C       1.18672383      0.50354843     -0.10603030
N       0.92992930     -0.85420760      0.13447351
H      -1.73590272      0.48546281      0.83222490
H      -1.76254622      0.18508714     -0.89481029
H      -0.02694935      2.25511158     -0.39234779
H       2.20516355      0.84939153     -0.18209871
H       1.62259454     -1.57369304      0.24933017
