16
b3lypvtz=-170472.44044109
O       1.88627395      0.77070989      0.91366108
C       1.84153775     -0.22093491     -0.11134882
C       0.46739545     -0.87494947     -0.10584388
C      -0.65738495      0.02592660     -0.56335615
C      -1.33702701      0.96386149      0.39390466
C      -2.07284365     -0.24420596     -0.12347738
H       2.73940166      1.21161786      0.87933825
H       2.60844646     -0.98612977      0.06151863
H       2.03538461      0.22798102     -1.09422014
H       0.51353304     -1.75836476     -0.75140251
H       0.26425879     -1.23756379      0.90607388
H      -0.54633541      0.38938241     -1.57963055
H      -0.99732188      0.95667979      1.41969565
H      -1.63551331      1.93806082      0.03182861
H      -2.87204233     -0.09432386     -0.83634732
H      -2.23756318     -1.06764735      0.55940599
