8
b3lypvtz=-268283.73213254
O      -1.13356603      1.21363736     -0.45309105
C      -0.75602010      0.17846953      0.01004315
O      -1.53894865     -0.87167048      0.31391134
C       0.70450589     -0.15498202      0.35722990
F       1.46190851      0.95209297      0.23781605
F       1.15589349     -1.08901044     -0.52753990
H      -2.44742851     -0.64516570      0.06240370
H       0.80510940     -0.55746323      1.36696782
