12
b3lypvtz=-194858.62463455
C       2.75810793      0.41608801     -0.00030995
N       1.81733750     -0.43625499     -0.00017385
C       0.50206810      0.03774847     -0.00011557
C      -0.52366090     -0.81165776     -0.00003070
C      -1.95930412     -0.42184889      0.00003699
F      -2.12725091      0.95847887     -0.00000401
H       2.58868506      1.49894661      0.00018036
H       3.78779421      0.07076867      0.00014570
H       0.33401947      1.11415252     -0.00017386
H      -0.31898405     -1.87674651     -0.00001499
H      -2.46975561     -0.81766673     -0.88437471
H      -2.46965267     -0.81759828      0.88453858
