14
b3lypvtz=-167320.72697624
C      -2.08765994     -0.80795957      0.16676074
N      -0.95666466     -0.62678636     -0.36320236
C      -0.14565371      0.46231099      0.02246208
N      -0.40853943      1.68250290     -0.22001669
C       1.16239294      0.06139259      0.65683023
C       2.12341957     -0.60705125     -0.33587271
H      -2.48790028     -0.16812117      0.95988099
H      -2.70908709     -1.63415022     -0.17106963
H      -1.31010255      1.77665741     -0.68900844
H       1.60707534      0.96637416      1.06786680
H       0.96023331     -0.62448541      1.48443066
H       1.68667875     -1.50973334     -0.76146038
H       3.05394318     -0.87927610      0.16350816
H       2.36460856      0.07273235     -1.15377345
