9
b3lypvtz=-206553.24595245
O       2.99496593     -0.33743482     -0.00019974
C       2.07932526      0.45049196     -0.00022032
C       0.68818729      0.07174259     -0.00016290
C      -0.48641545     -0.19591251     -0.00010877
C      -1.88837175     -0.56995522     -0.00005073
F      -2.71608237      0.54623391     -0.00008566
H       2.25168040      1.54159184     -0.00027025
H      -2.11887759     -1.16424802      0.88770266
H      -2.11892472     -1.16433873     -0.88773128
