10
b3lypvtz=-214810.98618507
C      -1.51771384      0.14805596      0.18895824
C      -0.20939031     -0.52836750      0.16922488
O      -1.24686348     -0.89770731     -0.73171443
C       0.95604111      0.18999453     -0.44227346
O       0.90929796      0.90596773     -1.40513488
O       2.08830369     -0.05739732      0.25576004
H      -1.59386675      1.13642453     -0.24957431
H      -2.21424249     -0.09329704      0.98479332
H       0.03154883     -1.25565760      0.93525321
H       2.79688530      0.45198402     -0.16565563
