11
b3lypvtz=-204939.7003892
C      -0.92725847      1.38271017     -0.22806808
C      -0.84469464      0.06642448     -0.08997224
F      -1.92954227     -0.64516938      0.29298454
N       0.22591824     -0.78408207     -0.28446773
C       1.57956426     -0.52345404     -0.07941694
N       2.16073562      0.52768265      0.31585232
H      -0.10495123      1.95404267     -0.62406507
H      -1.84310101      1.88666229      0.03442178
H      -0.02392316     -1.74301836     -0.46658771
H       2.17945357     -1.40236460     -0.31049776
H       1.51006308      1.28183418      0.52462689
