15
b3lypvtz=-157219.84272416
C      -1.80442606     -0.49234951     -0.17219376
C      -0.49144371     -0.23930555      0.55015269
C       0.08683061      1.21055668      0.36275159
C       1.29328337      0.60021155     -0.34924438
C       0.75550531     -0.77360561     -0.16808413
N       1.92605846     -0.32525209      0.62046139
H      -2.08190977     -1.54824198     -0.13117369
H      -2.61475695      0.08282781      0.28041141
H      -1.73993026     -0.20535344     -1.22473796
H      -0.55307794     -0.56509012      1.58975666
H       0.31644600      1.77195478      1.26818253
H      -0.54092864      1.81195087     -0.29466428
H       1.86884236      1.02016915     -1.16196698
H       0.82166303     -1.63974202     -0.81304831
H       2.75784418     -0.70873052      0.17674551
