12
b3lypvtz=-166559.42546696
C       2.41242813     -0.70741603     -0.09409342
C       1.40366460      0.01993982      0.38119952
N       0.50902572      0.77797371     -0.37200488
C      -0.83422969      0.98802026      0.12690971
C      -1.71877446     -0.19277983      0.04407438
N      -2.38879496     -1.12319592     -0.05112465
H       3.09860895     -1.19242021      0.58234254
H       2.58909883     -0.82426048     -1.15588130
H       1.24690984      0.10939416      1.45097419
H       0.54953750      0.60060641     -1.36549881
H      -1.30464329      1.80197364     -0.42671909
H      -0.78148915      1.30497047      1.17015281
