11
b3lypvtz=-202363.98470401
N       1.59150606     -0.37888734     -0.87930117
C       0.83962416      0.28475382      0.03808823
O       1.30748287      0.78569188      1.04240184
C      -0.65364056      0.35757058     -0.26244360
C      -1.46535561     -0.20539904      0.88987306
O      -2.41512762     -0.92728722      0.73936937
H       2.57789463     -0.47791019     -0.70664384
H       1.18911709     -0.82890482     -1.68056279
H      -0.95298862     -0.13654221     -1.18539912
H      -0.90000243      1.42143094     -0.33716603
H      -1.11840998      0.10558360      1.89168405
