10
b3lypvtz=-212415.96034687
C      -1.37536138      0.70871308      0.13495993
N      -1.96246468     -0.36181246     -0.13987791
O      -0.02985838      1.03064802      0.07608353
C       0.92869842      0.06025208     -0.03789564
N       1.00500307     -1.06097568      0.53106570
O       1.87373889      0.51918600     -0.86702526
H      -1.91373447      1.59593906      0.44920379
H      -1.33994448     -1.11031339     -0.43971907
H       0.23526654     -1.23886260      1.16596194
H       2.57865645     -0.14277411     -0.87275703
