13
b3lypvtz=-179753.9862069
O       1.07068164      1.64854342     -0.57693266
C       0.84417219      0.82795856      0.52713941
C      -0.49898904      0.21183524      0.84983604
C      -1.20218497     -0.19375313     -0.44243670
N       0.05345694     -0.85256058     -0.94794545
C       0.68785236     -0.64201526      0.37440096
H       0.99027542      1.07127559     -1.35242904
H       1.39671771      1.15642509      1.39834074
H      -0.96754837      0.30600751      1.81890171
H      -1.56808458      0.61105047     -1.08296702
H      -2.00270451     -0.91279520     -0.26831972
H      -0.09343725     -1.83109978     -1.15376441
H       1.28959244     -1.40087192      0.85607612
