11
b3lypvtz=-199932.15215329
N       1.84749087     -0.85325973      1.30341752
C       1.20255625     -0.06945202      0.54381853
O       1.66197976      1.13086284      0.11412548
C      -0.13975159     -0.44275360      0.07322126
N      -0.77137210      0.37374562     -0.67688677
N      -1.97917568      0.03365926     -1.18429773
H       2.75520269     -0.45583221      1.54225658
H       0.97339129      1.51494717     -0.45370374
H      -0.52456007     -1.41079378      0.39028624
H      -2.50386408     -0.66502732     -0.66777133
H      -2.52189735      0.84410375     -1.43456606
