16
b3lypvtz=-168071.82285969
C      -1.80470039     -0.46841650     -0.55878337
C      -0.52289513      0.04894909      0.05960464
N      -0.44000946      1.47563303      0.29839834
C       0.19017742     -0.80993535      1.07858104
C       0.78044646     -0.61283738     -0.30931224
N       1.93854373      0.20065743     -0.56459538
H      -2.66037302     -0.26446583      0.09122637
H      -1.76290182     -1.54570334     -0.72793699
H      -1.99247399      0.01252211     -1.52289250
H      -0.69847549      1.99348480     -0.53461761
H      -1.07425550      1.75538573      1.03777985
H       0.68246591     -0.29250741      1.89116571
H      -0.24570292     -1.76647015      1.33695848
H       0.69619531     -1.45963313     -0.98114230
H       1.80322740      1.10631289     -0.12794440
H       2.77004048     -0.21633400     -0.16300364
