15
b3lypvtz=-157240.65180428
C      -2.09405035     -0.15371365      0.45400330
C      -0.81506474     -0.18537649     -0.35611211
C       0.16921502      1.01915604     -0.26872048
C       1.24055460     -0.02013605      0.01228510
C       2.57013396     -0.02850891      0.01860473
N       0.27515310     -1.02184126      0.20588999
H      -2.59128798     -1.12600961      0.44001304
H      -1.88325693      0.10394179      1.49279102
H      -2.79006348      0.58250257      0.04515660
H      -1.03129057     -0.43528126     -1.40002409
H      -0.03626491      1.68307484      0.57143636
H       0.29861483      1.60819242     -1.17404330
H       3.12245598      0.88431727     -0.14950027
H       3.13299192     -0.93497598      0.19794072
H       0.43215956     -1.97554172     -0.08972060
