13
b3lypvtz=-177405.28601088
C       2.65075422     -0.14774743     -0.02391943
C       1.22486632      0.16048093      0.28783634
N       0.26729905     -0.27579498     -0.41607929
C      -1.05820521      0.10139276     -0.08421982
N      -1.53557758      1.28426632     -0.07749250
N      -1.84020854     -0.99083459      0.21567441
H       3.11914428     -0.66311488      0.81881918
H       3.21259355      0.77833019     -0.17389714
H       2.72604995     -0.76653182     -0.91530172
H       1.03766272      0.79369941      1.16376807
H      -0.81401856      1.96658732     -0.28754892
H      -1.54270812     -1.86705028     -0.17888398
H      -2.83162009     -0.81572495      0.19038980
