12
b3lypvtz=-192279.89138181
C      -1.23485005      1.07956839      0.27233294
C      -0.96964909     -0.12847873     -0.23255759
O      -1.93997948     -0.98209675     -0.62346537
C       0.40953233     -0.67758726     -0.42503895
C       1.62365058      0.12878843     -0.04703360
O       0.50228449     -1.79797947     -0.89821294
H      -2.25276868      1.42241153      0.38765745
H      -0.43753622      1.73774773      0.57536190
H      -1.47424596     -1.77487209     -0.94623472
H       1.65188877      1.06758950     -0.60187181
H       1.60718453      0.37678275      1.01515865
H       2.51448879     -0.45207403     -0.27019597
