15
b3lypvtz=-180529.52694153
O       1.80115720      1.17985559     -0.00950743
C       1.73095563     -0.22348132     -0.25786080
C       0.30736481     -0.58287358     -0.63659574
N      -0.58914665     -0.53546039      0.51101111
C      -1.24505568      0.73963995      0.77764984
C      -2.01067704     -0.39973842      0.21134559
H       2.65363971      1.38248666      0.38435669
H       2.39982127     -0.50357469     -1.08122245
H       2.01722841     -0.79496468      0.63100056
H      -0.02017500      0.08177537     -1.45174342
H       0.30196468     -1.60542123     -1.02342197
H      -1.34765948      1.00248699      1.82279909
H      -1.01494843      1.56936178      0.11968080
H      -2.68037316     -0.97925212      0.83437138
H      -2.30419628     -0.33093992     -0.83186327
