11
b3lypvtz=-207336.43213701
C      -1.86347834     -0.32735827      0.33319912
C      -0.68028823      0.21229623      0.01513531
O      -0.62566375      1.50846555     -0.40783664
C       0.55489453     -0.56065815      0.11242952
C       1.79704134     -0.18195511     -0.16165963
F       2.10419861      1.06988976     -0.60210345
H      -2.77177194      0.25144413      0.25879944
H      -1.92620331     -1.34997898      0.66892433
H       0.28449018      1.75637461     -0.59924883
H       0.44807709     -1.58118279      0.45393765
H       2.67880382     -0.79743697     -0.07167681
