11
b3lypvtz=-179002.65812612
N       3.05154802     -0.66027537      0.54774101
C       1.94709582     -1.09206942      0.08293688
C       0.72044476     -0.36480819     -0.02320484
C      -0.31882343      0.23838518     -0.12411191
C      -1.58694514      0.95602487     -0.22732715
O      -2.62439710      0.20579033     -0.84412767
H       2.95935117      0.31086023      0.85156615
H       1.91670618     -2.12104805     -0.27683162
H      -1.45251593      1.84564810     -0.84552517
H      -1.88160039      1.30242872      0.77126989
H      -2.73096395     -0.62093640     -0.36248557
