9
b3lypvtz=-178192.7036486954
C       2.21455969      0.03989156     -0.27354800
C       0.92151764     -0.16971368     -0.18619527
C      -0.31227683     -0.40196434     -0.09573590
C      -1.62601880     -0.51969635     -0.02296032
N      -2.55235151      0.58632172     -0.20217538
O      -2.05047564      1.65681155     -0.45106339
H       2.60755571      1.02752165     -0.48277326
H       2.92696152     -0.76532455     -0.13948851
H      -2.12947178     -1.45384757      0.18375309
