15
b3lypvtz=-157221.638424096
C      -1.69441692      0.17450207     -0.34696770
C      -0.52486583      0.00041424      0.63954219
C       0.40948038     -1.18761420      0.24477465
C       1.45882075     -0.51942666     -0.59923691
N       1.42808745      0.77349779     -0.25313583
C       0.43656451      1.16918958      0.56296587
H      -2.30438686      1.03804465     -0.07629842
H      -1.32598885      0.32240893     -1.36414125
H      -2.33978765     -0.70821450     -0.34659766
H      -0.93013590     -0.14834820      1.64029367
H      -0.12863809     -1.99482533     -0.25435502
H       0.86640180     -1.61022322      1.15357554
H       2.35068711     -0.95120818     -1.02035648
H       2.11901113      1.42646004     -0.59520262
H       0.17916699      2.21534298      0.61513996
