12
b3lypvtz=-166563.47502405
N       2.04620318      0.36205185      0.07693539
C       0.79389050      0.19925986      0.04288555
C      -0.03490791     -1.05031961     -0.23093423
C      -1.43516543     -0.50522391     -0.10960022
N      -1.54541381      0.72979188      0.16217530
C      -0.20843662      1.31765284      0.29024336
H       2.54512116     -0.50750102     -0.11506106
H       0.16521075     -1.46781932     -1.22213086
H       0.16693720     -1.84492225      0.49340794
H      -2.32009178     -1.12186481     -0.24427904
H      -0.08579388      1.75595883      1.28338136
H      -0.08745338      2.13273565     -0.42702348
