14
b3lypvtz=-190625.83968042
N       2.54477415     -0.32907626     -0.39611617
C       1.48401374      0.30708283      0.40730128
C       0.23220550     -0.51016729      0.35154919
C      -0.98097749     -0.03778675      0.05471371
N      -2.12857006     -0.80721485     -0.19579744
O      -1.22130829      1.30520115     -0.07481495
H       3.40658157      0.19928443     -0.31591195
H       2.28372323     -0.31338467     -1.37596393
H       1.25662475      1.33676734      0.10979950
H       1.85541913      0.35221377      1.43685805
H       0.33214524     -1.56975168      0.55116478
H      -2.89728728     -0.58329141      0.42577887
H      -1.94416530     -1.79974332     -0.17667877
H      -1.93968088      1.40943771     -0.71140519
