16
b3lypvtz=-191386.71590142
N      -2.41395781      0.07629714     -0.17548572
C      -1.24230947     -0.74328798      0.16388688
C       0.02232917      0.00901484     -0.24996614
O      -0.00461310      1.32312628      0.29517715
C       1.29510742     -0.66742263      0.22689552
N       2.46363408      0.03181156     -0.30905605
H      -3.23325216     -0.21754770      0.33924386
H      -2.63626732      0.00197156     -1.16120134
H      -1.23257480     -0.87630398      1.24767898
H      -1.24987074     -1.73890154     -0.29659746
H       0.06019662      0.06738067     -1.34818145
H      -0.93051721      1.60258363      0.23580311
H       1.30781345     -1.69748965     -0.14014816
H       1.26366800     -0.70572561      1.32570796
H       2.43759979      0.99776695     -0.00249580
H       3.31719808     -0.37184953      0.05690567
