9
b3lypvtz=-199146.83569957
C       0.83118941      0.76777765      0.19738100
C      -0.17432023     -0.19978864     -0.11037133
N       0.39717164     -1.36744549     -0.22925930
O       1.74538963     -1.13890395     -0.01086554
N       1.98288458      0.17389002      0.25539756
N      -1.51572998      0.01705812     -0.33276067
H       0.73918589      1.82817491      0.36256049
H      -1.93440377      0.74356967      0.22505080
H      -2.07136717     -0.82433229     -0.35713302
