13
b3lypvtz=-156496.2156977
N      -2.09221226     -0.00822156      0.07536028
C      -0.71115238      0.07475327     -0.00759931
C       0.08406644      1.16942248     -0.00906160
C       1.47932069      0.73322592     -0.00447988
C       1.55246023     -0.60789595     -0.00139755
C       0.15172999     -1.16390029      0.00404401
H      -2.50521893     -0.81893449     -0.35864397
H      -2.58908899      0.83637851     -0.16197302
H      -0.24548910      2.19816073     -0.00482499
H       2.32167457      1.41082904     -0.00917870
H       2.44287179     -1.21584736     -0.01037262
H      -0.05197540     -1.77089899      0.89215248
H      -0.04460066     -1.80283232     -0.86464614
