12
b3lypvtz=-187442.25007089
C      -2.08074996     -0.65406971      0.00002696
N      -0.63841367     -0.64555863     -0.00006367
C       0.09956433      0.49015400     -0.00003078
N      -0.27216224      1.71147108     -0.00001430
N       1.54784091      0.31383052     -0.00000803
N       1.90072288     -0.87233484      0.00004057
H      -2.42865308     -1.68482880      0.00001236
H      -2.48887033     -0.15748488     -0.88578393
H      -2.48877202     -0.15753664      0.88591404
H      -0.11706372     -1.50765784      0.00002344
H      -1.28667796      1.79507720     -0.00001677
H       2.92879786     -0.88297146      0.00004010
