14
b3lypvtz=-169720.48166936
C      -1.37783699      1.38333731     -0.11705145
C      -1.03895463      0.09113090     -0.06785628
C      -2.07089628     -0.98550483      0.15659081
C       0.34112540     -0.38577157     -0.23468859
C       1.42537905      0.25679602      0.20638740
O       2.71720492     -0.13907079      0.05794359
H      -0.65392148      2.15546781     -0.34042561
H      -2.39693060      1.70231090      0.05785674
H      -2.07042215     -1.69866885     -0.67306479
H      -1.85251837     -1.55690503      1.06251066
H      -3.07301831     -0.56807798      0.24331442
H       0.47113033     -1.35347622     -0.71538117
H       1.36635409      1.18423349      0.76016194
H       2.74822402     -0.94790317     -0.46652666
