15
b3lypvtz=-157259.11807777
C       2.10744562     -0.02391101      0.24412366
C       0.73319798     -0.03019422     -0.42585501
C      -0.13597011      1.16345167     -0.08721130
N      -1.35329394      0.93684397      0.18049554
C      -1.59274301     -0.51376647      0.07116732
C      -0.20379244     -1.18532147     -0.01040367
H       2.01088945     -0.00717837      1.33166312
H       2.69179362      0.84849609     -0.05509151
H       2.67876806     -0.91290504     -0.02769139
H       0.88291604     -0.03463667     -1.51321615
H       0.24923399      2.18144438     -0.09024100
H      -2.18871266     -0.85082445      0.91982973
H      -2.19402692     -0.68841137     -0.82599143
H       0.09137702     -1.55902459      0.97251471
H      -0.17641370     -2.02549546     -0.70290361
