11
b3lypvtz=-176634.16261036
C      -2.13448508      0.02370471     -0.00002445
C      -0.64362375      0.03714394     -0.00000407
C       0.23364333      1.09335212     -0.00001655
N       1.45582836      0.50955084     -0.00006174
H       2.36520263      0.93990111      0.00008522
N       1.35765604     -0.82852643      0.00005948
N       0.09176402     -1.11464804      0.00006617
H      -2.51785880     -0.49652719     -0.87907210
H      -2.51788017     -0.49652779      0.87901320
H      -2.53626255      1.03628015     -0.00002955
H       0.09386397      2.15913858     -0.00007761
