9
b3lypvtz=-227437.71033276
C       1.60768409     -0.27763463      0.68137171
C       0.64282368      0.61952176      0.54626159
N      -0.74441729      0.44210708      0.38910203
N      -1.13435995     -0.72797763      0.37383311
O      -2.47951426     -0.81146978      0.21972785
F       0.91083981      1.93243779      0.54427615
H       1.37108695     -1.32914400      0.68039809
H       2.63162523      0.04227507      0.79258742
H      -2.80576828      0.10988434      0.15811451
