14
b3lypvtz=-167321.5139798
C      -1.44572614      1.14620457     -0.44240221
C      -0.73604748      0.10372948     -0.00016376
N      -1.31662450     -1.11540264      0.40234737
C       0.75364912      0.08916721      0.00331499
C       1.46510290      1.12959247      0.46091585
N       1.31526189     -1.06922143     -0.52538513
H      -0.95490097      1.99914365     -0.88255802
H      -2.52770793      1.14929850     -0.40129623
H      -0.93718450     -1.47977559      1.26648781
H      -2.32509727     -1.08483464      0.44282536
H       2.54708147      1.12827906      0.43698750
H       0.96773047      1.99669898      0.86299953
H       2.25279389     -1.29067339     -0.23536466
H       0.69854204     -1.86270422     -0.57798040
