11
b3lypvtz=-202344.21670604
C      -1.95258580      0.45069900      0.44217055
N      -1.43205783     -0.71764209     -0.24503321
C      -0.19570389     -0.90139184     -0.42806435
C       0.97098706     -0.03222181      0.00426847
O       1.87483893     -0.47057063      0.65468969
O       0.96667537      1.26065356     -0.40483550
H      -2.61966012      0.10251655      1.23162802
H      -2.57474406      1.01472533     -0.25710644
H      -1.20606458      1.11766527      0.88472168
H       0.12266788     -1.83361150     -0.89331393
H       0.19948405      1.43298017     -0.96435497
