12
b3lypvtz=-192283.8567585
O       1.53876171      1.22044191     -0.23259683
C       1.26593544      0.04995155     -0.11497058
O       2.21309128     -0.92018708     -0.11993094
C      -0.09374265     -0.50845027      0.04866034
C      -1.23230133      0.20456547     -0.65714724
C      -1.10252450      0.32290720      0.81931475
H       3.06471122     -0.47163146     -0.23003870
H      -0.14727055     -1.58244463      0.13931164
H      -0.95856935      1.06212193     -1.25423012
H      -2.01404761     -0.41969974     -1.06529690
H      -1.79324921     -0.21771557      1.45022703
H      -0.74079445      1.26004069      1.21659754
