10
b3lypvtz=-189096.32619495
N      -2.13623734     -0.79650852      0.00004589
C      -0.87088542     -0.77207655     -0.00007844
C       0.00272699      0.45118355      0.00001024
N      -0.36857821      1.66588105      0.00000239
C       1.49315716      0.23041115      0.00006721
O       2.00327218     -0.86033411     -0.00006562
H      -2.54284865      0.14479429      0.00023123
H      -0.33276589     -1.71672797     -0.00025529
H      -1.38845354      1.76201522     -0.00008806
H       2.07706871      1.16789088      0.00013245
