12
b3lypvtz=-189862.51427111
C       1.17536478      0.38372920     -0.59482295
N       2.21028036      0.13606384      0.07679142
C      -0.22412549     -0.18440859     -0.30926529
C      -1.18188077      0.97312693     -0.07986926
O      -1.91910287      1.04789611      0.86815233
N      -0.22719431     -1.11006266      0.79925427
H       1.24691890      1.04660586     -1.46021125
H       1.95541004     -0.49614056      0.84493462
H      -0.55931547     -0.63933293     -1.25523628
H      -1.15496222      1.76755249     -0.84948213
H      -0.36271741     -2.06567470      0.50480570
H      -0.95867555     -0.85935499      1.45494881
