16
b3lypvtz=-191382.26219686
N       2.18597849     -0.69551238     -0.14426778
C       0.81222008     -0.73070186      0.38050285
C      -0.02304683      0.37670159     -0.27602631
N       0.50269292      1.72667589     -0.05677886
C      -1.47795559      0.34283488      0.17124759
O      -2.04541745     -0.91306988     -0.19665962
H       2.80087942     -1.26126811      0.42736233
H       2.21248309     -1.09675255     -1.07522619
H       0.85986165     -0.53658677      1.45661818
H       0.31157903     -1.69483450      0.24350510
H      -0.01914497      0.20132478     -1.35780249
H       1.49514525      1.71009089     -0.26888774
H       0.43893193      1.95932837      0.93060659
H      -1.53035268      0.48833930      1.26030210
H      -2.00535762      1.17436831     -0.30513054
H      -2.97787472     -0.90902399      0.03397877
