16
b3lypvtz=-168091.9672755
C       0.95623723      1.44221851      0.36935873
C       0.71794257      0.06659669     -0.26582039
C       1.99375372     -0.77151335     -0.30809354
N      -0.32685256     -0.68476669      0.41968912
C      -1.67245814     -0.47411576      0.27149014
N      -2.30143712      0.29826826     -0.52374975
H       1.68086292      2.01719171     -0.21042535
H       0.02999647      2.01408353      0.42178399
H       1.34368712      1.33237735      1.38464359
H       0.37576113      0.21384516     -1.29416703
H       2.78390360     -0.24232093     -0.84092591
H       2.35799393     -0.97444340      0.70287799
H       1.81899672     -1.72491925     -0.80692211
H      -0.04196110     -1.25976457      1.19493563
H      -2.26035562     -1.10138497      0.94290965
H      -1.67493787      0.84928170     -1.10818277
