11
b3lypvtz=-202364.6807438
C      -2.18379760     -0.28749749     -0.00000300
C      -0.71884988     -0.00834025     -0.00000212
O      -0.41094470      1.27243842      0.00000533
N       0.14526275     -0.98825334     -0.00000759
C       1.48000682     -0.66589170     -0.00000452
O       1.97035196      0.46507413      0.00000459
H      -2.64325573      0.17050394     -0.87765492
H      -2.64324766      0.17046531      0.87767358
H      -2.36282541     -1.35743112     -0.00002448
H       0.59223992      1.31397159      0.00000775
H       2.14012353     -1.54149049     -0.00001262
