10
b3lypvtz=-189078.79590203613
C      -0.12509950     -0.21212093      0.21593588
C      -1.30826967      0.39602646      0.07448919
O      -2.53140018     -0.14237582      0.34862245
C       1.14392177      0.41239313     -0.09201585
N       2.26409424     -0.22221274      0.06360697
N       3.24242150     -0.78644133      0.20313724
H      -0.08932909     -1.23368973      0.58134077
H      -1.40463291      1.41188108     -0.28511781
H      -2.42565499     -1.04593575      0.66725224
H       1.23394882      1.42247563     -0.46193221
