14
b3lypvtz=-193046.91319843
C      -2.76852105      0.43949354     -0.00000056
C      -1.58191029     -0.52422956     -0.00000281
C      -0.25895225      0.21472815      0.00000270
O       0.80411774     -0.77088756      0.00000020
C       2.05463235     -0.29596004     -0.00000005
O       2.37272997      0.86112768      0.00000163
H      -2.75894136      1.08371449     -0.88154273
H      -3.71192270     -0.10658431     -0.00000456
H      -2.75894434      1.08370671      0.88154734
H      -1.62528874     -1.17464332     -0.87650218
H      -1.62529176     -1.17465118      0.87649057
H      -0.14710848      0.84865164      0.88108454
H      -0.14710548      0.84865958     -0.88107301
H       2.75811140     -1.13908081     -0.00000208
