12
b3lypvtz=-215575.02757641
O       0.03823845      0.55861581      1.42625576
C       0.00796104      0.11591628      0.29548691
C      -1.30333331      0.02812458     -0.45431930
O      -2.37840659      0.50060300      0.30869671
C       1.28123057     -0.35243495     -0.37444097
O       2.39868344     -0.20229041      0.45616920
H      -1.20596664      0.60055609     -1.38630223
H      -1.46277853     -1.01835649     -0.74632418
H      -2.00825598      0.77869924      1.15992751
H       1.40870329      0.21544415     -1.30564632
H       1.15034767     -1.40322320     -0.66521719
H       2.07347661      0.17814590      1.28591411
