14
b3lypvtz=-167319.01737060517
C       2.11240875      0.92999191     -0.47188002
C       1.39267737     -0.19515076     -0.49281835
C      -0.00064645     -0.34849966     -0.08765915
N      -0.39298360     -1.55966473      0.55084295
C      -0.93484300      0.60077678     -0.28793260
N      -2.26710095      0.44011203      0.09536394
H      -2.79261970      1.29766759      0.15406842
H      -2.37396573     -0.12203812      0.93057798
H      -1.13551190     -2.04242574      0.05769027
H       1.70989372      1.85644848     -0.08237531
H       3.12566892      0.95269483     -0.84923084
H       1.87587931     -1.10900988     -0.83572944
H       0.37789798     -2.19259601      0.70252637
H      -0.69675471      1.49169328     -0.84941481
