13
b3lypvtz=-177395.3257789
C       2.34281674     -0.41678152      0.39464176
N       1.60263559      0.72473989     -0.11734978
C       0.38692708      0.57215140     -0.44628023
N      -0.33971674     -0.61907117     -0.45338135
C      -1.57075772     -0.62635250     -0.11503506
N      -2.30381722      0.39368012      0.41376004
H       1.87364715     -1.38085930      0.18272214
H       2.45237906     -0.31747420      1.47856887
H       3.34931717     -0.39562428     -0.02605531
H      -0.13095425      1.45332750     -0.84141112
H      -2.14234724     -1.54189796     -0.25699129
H      -3.23897199      0.21892237      0.73351793
H      -1.85401964      1.22659565      0.75139639
