10
b3lypvtz=-209973.24282856
N      -1.89548517     -1.03750720      0.02602509
C      -1.01709096     -0.11900860     -0.00845292
N      -1.20305596      1.24196484     -0.06447497
N       0.34094925     -0.59603824     -0.04672664
N       1.17232585      0.29913171      0.03272962
O       2.44745459     -0.23981066     -0.00549704
H      -2.83655159     -0.64784923      0.05223991
H      -0.41160786      1.82636825      0.14723044
H      -2.10335557      1.59465635      0.20888955
H       3.01175942      0.54101978      0.06149596
