12
b3lypvtz=-192259.11371482
C      -1.99207404     -0.00000071     -0.27449049
C      -0.64913605     -0.00000457      0.40388320
O       0.12911524      1.14603514      0.02652876
C       1.41956034      0.66228987     -0.10926286
C       1.41956062     -0.66228889     -0.10926288
O       0.12911591     -1.14603267      0.02652591
H      -2.55462373      0.88569997      0.02014486
H      -2.55463056     -0.88569559      0.02014953
H      -1.86350861     -0.00000340     -1.35603961
H      -0.74115243     -0.00000242      1.50133846
H       2.20882466      1.38014304     -0.23459796
H       2.20882664     -1.38014177     -0.23459494
