8
b3lypvtz=-216650.50321232
C      -0.96673380     -0.17135816      0.12180672
C       0.35631383      0.57312252      0.15938959
O       0.45068468      1.69041424      0.59223293
C       1.53287735     -0.14433652     -0.36137282
N       2.47425841     -0.67345852     -0.75954070
F      -0.82714095     -1.43202972     -0.41313493
H      -1.67129585      0.40547939     -0.48161071
H      -1.34896366     -0.24783323      1.14222990
