13
b3lypvtz=-156458.93817737
C      -2.19965688     -1.00812433      0.01001261
C      -1.24617909     -0.27658696      0.03395169
C      -0.10310190      0.57613642      0.09607253
C      -0.18563723      1.87523488     -0.20990112
C       1.20488867     -0.05732876      0.52795032
N       1.62325407     -1.09064483     -0.41931904
H      -3.04095111     -1.65408071     -0.02044174
H       0.68728428      2.51268391     -0.15665230
H      -1.11898384      2.32908868     -0.51178480
H       1.93791984      0.74630881      0.67585264
H       1.05479960     -0.54075652      1.49639548
H       1.91116179     -0.67477870     -1.29689295
H       2.41095181     -1.61210789     -0.05610833
