11
b3lypvtz=-179051.83631969
O      -2.05292357      0.00532068     -0.00000004
C      -0.85631679     -0.01744153      0.00000050
C       0.08625409      1.19417371      0.00000349
C       1.48045235      0.56936466     -0.00001154
C       1.15335992     -0.90367950     -0.00000169
N      -0.07783966     -1.23387642      0.00000475
H      -0.11936161      1.80648273      0.87707301
H      -0.11937981      1.80651210     -0.87704092
H       2.08159698      0.82726292      0.87507090
H       2.08157417      0.82725056     -0.87511396
H       1.92745894     -1.66666791      0.00000549
