12
b3lypvtz=-189872.1427702
C       1.83460443     -0.24139252     -0.04105220
C       0.65077607      0.36055609      0.05173995
O       0.55264784      1.72494152      0.03330702
C      -0.64551013     -0.38297974      0.12936338
N      -0.84440701     -1.50256101      0.70072122
N      -1.71814656      0.32016753     -0.41708737
H       2.74700831      0.33455206     -0.08283602
H       1.89510064     -1.31631703     -0.10069662
H      -0.35289739      1.96741308      0.26498438
H      -0.00158045     -1.81974953      1.17133673
H      -2.57444365     -0.21537368     -0.40561887
H      -1.54305211      0.77054325     -1.30406160
