15
b3lypvtz=-157235.07827768
C      -1.73114225      0.68521657     -0.06073299
N      -0.56221061     -0.13724421     -0.23815192
C      -0.29510825     -1.40441088      0.45881737
C       1.21967274     -1.09184522      0.30454570
C       0.76300082      0.29146606     -0.13109618
C       1.34328764      1.48237977     -0.27023239
H      -2.62770326      0.09398989     -0.24976299
H      -1.71557828      1.50717483     -0.77704035
H      -1.79771229      1.11257727      0.95070562
H      -0.62472594     -1.40477742      1.50442101
H      -0.68580265     -2.29056946     -0.04407356
H       1.71208746     -1.66670556     -0.47833640
H       1.81328050     -1.13018045      1.21470130
H       0.77821652      2.36773868     -0.52674109
H       2.41043786      1.58519014     -0.14163097
