12
b3lypvtz=-192282.94344356
C       2.59649001     -0.30870169     -0.00002678
C       1.41254925      0.27971511     -0.00006729
O       0.25800226     -0.48017648     -0.00015462
C      -0.94752065      0.17062311     -0.00019456
C      -2.07134608     -0.82571062     -0.00028359
O      -1.05991882      1.36544635     -0.00015723
H       3.49143022      0.29452778      0.00004246
H       2.69811879     -1.38474081     -0.00006139
H       1.24626506      1.34663531     -0.00003773
H      -1.99833302     -1.46779946     -0.87856648
H      -3.02110612     -0.30007658     -0.00030997
H      -1.99841589     -1.46786103      0.87796120
