13
b3lypvtz=-177373.57192052
C      -2.92833655      0.06332309     -0.00030046
N      -1.77572268     -0.47929578     -0.00090508
N      -0.68880318      0.31048000      0.00039734
C       0.57443880     -0.23528519     -0.00030311
N       1.60241581      0.49982126      0.00076474
C       2.90294030     -0.15514872      0.00024649
H      -3.08415175      1.14388969      0.00123938
H      -3.79034069     -0.58839241     -0.00133563
H      -0.77048580      1.32288717      0.00183842
H       0.55344017     -1.32871110     -0.00192633
H       3.04724513     -0.78533163     -0.88369426
H       3.05024816     -0.77961433      0.88771675
H       3.68546628      0.60197197     -0.00336025
