13
b3lypvtz=-179793.22199604
C      -2.51490311     -0.09478950      0.00088275
C      -1.30106820     -0.63171393     -0.00078242
C      -0.03199214      0.13578989     -0.00036607
N       0.15478205      1.39089891     -0.00045879
O       1.01289140     -0.72315223      0.00012390
C       2.31853496     -0.13859121      0.00056541
H      -3.40025501     -0.71505101      0.00045793
H      -2.67493253      0.97675161      0.00278833
H      -1.17878017     -1.70760763     -0.00241464
H      -0.72564983      1.89594819     -0.00105588
H       2.46254076      0.48172574     -0.88371044
H       3.01282536     -0.97457886      0.00082979
H       2.46193446      0.48176504      0.88491214
