11
b3lypvtz=-179027.8081348
C      -2.32704210      0.46729097     -0.26692498
C      -1.22037070     -0.26779022     -0.37822397
N       0.03451951      0.33258264     -0.35329377
C       1.07177167     -0.40281901     -0.46052501
C       2.40869634      0.23074168     -0.43518943
O       3.43596522     -0.39771988     -0.53183986
H      -2.26079951      1.54080292     -0.15583093
H      -3.30586661      0.01018942     -0.28511047
H      -1.27117049     -1.35131692     -0.49085617
H       1.04515412     -1.49202761     -0.57241514
H       2.38924253      1.33006600     -0.32019026
