12
b3lypvtz=-166565.20314122
C      -0.17654006      1.75685995      0.09698119
C      -0.03404155      0.28300488     -0.34000492
C      -1.28517114     -0.44641333     -0.11903595
N      -2.26480554     -1.01823368      0.07390509
C       1.10641460     -0.39446058      0.41280284
N       2.20709694     -0.78228454     -0.06490614
H       0.74598740      2.29363172     -0.12015551
H      -0.37596582      1.82466644      1.16601571
H      -0.99730111      2.23571553     -0.43470232
H       0.18758762      0.24215856     -1.40983088
H       0.93807359     -0.51786624      1.48449475
H       2.25805609     -0.62924970     -1.07478886
