10
b3lypvtz=-189121.80993827007
C      -0.78954439     -0.38268796     -0.57616864
C       0.29643034      0.27553597     -0.14558767
N       1.56420999     -0.28969522     -0.26283663
C       2.71704152     -0.06841800     -0.02796701
O       3.87307821      0.04208818      0.15570144
N      -2.08360545      0.06324461     -0.51459607
H      -0.66540918     -1.36281439     -1.01813304
H       0.23343047      1.25891220      0.30484591
H      -2.83189258     -0.49496378     -0.87210096
H      -2.31373893      0.95879839     -0.12737129
