11
b3lypvtz=-179043.0775299
C      -1.06607589      0.26624336      0.28984079
C      -0.70005066     -1.10902288     -0.19567829
N       0.51988298     -1.30747381     -0.49525218
C       1.28061622     -0.07713997     -0.27511842
C       0.29065952      0.97216084      0.23530769
O       0.52974462      2.11209907      0.53102407
H      -1.47368441      0.27497499      1.30421826
H      -1.79780531      0.77136591     -0.34619003
H      -1.42447236     -1.91294868     -0.29500647
H       1.75812419      0.25281407     -1.20129516
H       2.08306111     -0.24307292      0.44814971
