13
b3lypvtz=-156463.5565592508
C       2.21941528     -0.18658367      0.20255850
C       0.92812509     -0.40958197      0.41611697
C      -0.18527476      0.19988444     -0.36743375
C      -1.40797277      0.78787077      0.42132332
N      -2.29086192     -0.22637786     -0.23336872
C      -1.28862778     -0.71055127     -0.86625578
H       2.55842630      0.47904643     -0.58269751
H       2.98340631     -0.65792822      0.80647044
H       0.62999059     -1.08480622      1.21407990
H       0.20711179      0.87407143     -1.13189751
H      -1.68352516      1.81385986      0.17535207
H      -1.36711295      0.67141270      1.50436437
H      -1.30310002     -1.55031641     -1.55861231
