15
b3lypvtz=-178161.3315259
C       1.49401766     -1.04445503     -0.21030078
N       0.58664963      0.08567009     -0.20554361
C       1.18784398      1.32700437      0.26962204
C      -0.76752327     -0.17235496      0.00109463
N      -1.31116495     -1.29969537      0.26954714
N      -1.58606719      0.95254496     -0.12651939
H       2.44100763     -0.73311384     -0.65148688
H       1.70222317     -1.43244650      0.79682306
H       1.08642837     -1.85176698     -0.81676953
H       0.43958303      2.10895509      0.33765285
H       1.63318291      1.20076851      1.26542506
H       1.97599271      1.64797877     -0.41458012
H      -0.62720534     -2.01245878      0.49567052
H      -1.38314610      1.53342934     -0.92702440
H      -2.55713124      0.68145832     -0.08803259
