13
b3lypvtz=-203098.13473804
C      -1.74569901      0.23474356     -0.18730288
C      -0.27448258      0.56814511     -0.08953684
O       0.42947662     -0.68971361      0.00114449
C       1.76684555     -0.63205429      0.10506300
N       2.41947812      0.44773365      0.10723130
O      -2.23945150     -0.41099489      0.97580955
H      -1.92644191     -0.37126275     -1.08330617
H      -2.31050928      1.16214671     -0.29101297
H      -0.05758084      1.16132053      0.79914083
H       0.07338103      1.11695007     -0.96652404
H       2.16817848     -1.64351914      0.18046798
H       3.41456110      0.26616888      0.19260211
H      -1.71775579     -1.20966383      1.10703926
