15
b3lypvtz=-157255.02405536
C      -1.89697768     -0.02662596      0.23532905
C      -0.50572360     -0.02945541     -0.37782729
C       0.47314109     -1.07582788      0.21242589
C       1.80207173     -0.35840794      0.13693077
C       1.57507103      0.93887708     -0.07400665
N       0.21042667      1.25215984     -0.16296014
H      -1.83943741      0.15809963      1.30874187
H      -2.39143141     -0.98675826      0.07373093
H      -2.52467834      0.74903520     -0.20826570
H      -0.58892777     -0.21384735     -1.45786640
H       0.20785859     -1.30472228      1.25285279
H       0.44055899     -2.01680771     -0.33864399
H       2.76101210     -0.80539508      0.34237285
H       2.30142725      1.73759336     -0.12209460
H      -0.02439121      1.98208275     -0.82071937
