12
b3lypvtz=-166541.81827276055
C      -1.33531411     -0.38732410      0.45231330
C      -0.29850160      0.55467428     -0.09473676
N      -0.66680163      1.77321409     -0.37648527
N      -0.99580169      2.83265265     -0.61942254
C       1.08015801      0.19464516     -0.32852065
C       1.61350357     -1.01093328     -0.09421875
H      -2.30241663      0.10314143      0.54565471
H      -1.04320588     -0.75458478      1.43939103
H      -1.45502908     -1.25462805     -0.20195775
H       1.71102366      0.98247466     -0.72566432
H       1.03481432     -1.83476077      0.30067560
H       2.65757104     -1.19857130     -0.29702861
