12
b3lypvtz=-168944.9833732
C       1.44320227      0.14913388     -0.14948717
C       0.64912629      1.19883354      0.06111442
C      -0.73482289      0.74225796      0.37546522
O      -1.34487054     -0.01008280     -0.70354318
C      -0.70607042     -0.72865688      0.35510356
C       0.71840749     -1.16526749      0.04871514
H       2.47735895      0.20159427     -0.46214922
H       0.93563750      2.23748213     -0.01835944
H      -1.42351783      1.32811359      0.97043837
H      -1.36074654     -1.34637789      0.95808788
H       0.76353468     -1.79989761     -0.84044192
H       1.14218504     -1.74185970      0.87661235
