12
b3lypvtz=-168924.7551535
C       1.71411597     -0.93253565      0.53595677
C       0.60153719     -0.23156383      0.70647362
C      -0.11844267      0.48097281     -0.41186964
C      -1.50675279      0.03261242     -0.52383379
C      -2.63155881     -0.37103521     -0.61492154
O      -0.13230316      1.89776690     -0.18989826
H       2.15935692     -1.06065289     -0.44401969
H       2.21572624     -1.41171493      1.36608994
H       0.15816248     -0.11200861      1.68876401
H       0.38952708      0.25423268     -1.35820060
H      -3.63072818     -0.71910241     -0.69851921
H       0.78135972      2.17302873     -0.05602164
