12
b3lypvtz=-189817.82742012
C      -2.06116584      0.56203622      0.37744925
C      -0.60113088      0.34299212      0.12006227
C       0.02314663     -0.77212247      0.47201100
O       1.35291257     -1.11717265      0.30387797
N       2.11746893     -0.13022007     -0.32777931
N       3.26775102     -0.53248969     -0.42564790
H      -2.22440441      1.44114793      1.00669241
H      -2.60550283      0.73613774     -0.55464456
H      -2.51632926     -0.29502104      0.87557776
H      -0.05210814      1.13389132     -0.37160348
H      -0.47448478     -1.59620918      0.96590227
H       3.77384700      0.22702976     -0.89176791
