8
b3lypvtz=-299187.27066682
F      -1.95469595     -0.15296132     -0.00000098
C      -0.91587693      0.74828227      0.00000056
C       0.40821025      0.00454121      0.00000005
F       1.41435394      0.90273489      0.00000222
F       0.54601821     -0.77318860      1.08387723
F       0.54601951     -0.77318477     -1.08387976
H      -0.97001733      1.36795450      0.89537067
H      -0.97001670      1.36795682     -0.89536799
