10
b3lypvtz=-165822.00099437
C       1.15954477      0.64437009     -0.03920520
C       1.06188378     -0.65150152      0.45746836
N      -0.09832974     -1.30458960      0.50003559
C      -1.15954473     -0.64437027      0.03920503
C      -1.06188378      0.65150134     -0.45746855
N       0.09832974      1.30458973     -0.50003562
H       2.11324396      1.15943329     -0.06548604
H       1.93752167     -1.17244720      0.82818098
H      -2.11324410     -1.15943321      0.06548621
H      -1.93752159      1.17244735     -0.82818077
