15
b3lypvtz=-157213.265772264
C       2.20190971      0.28310723      0.03511014
C       1.09385054      0.07587054      1.01796423
C       0.98987421     -0.50288892     -0.34907005
C      -0.06696621      0.44075736      0.14447874
C      -1.44854688     -0.09355146      0.46696283
N      -2.38229106     -0.16860237     -0.66038572
H       2.35518849      1.27162003     -0.39508774
H       3.11611607     -0.27522542      0.20271773
H       1.10513337     -0.42742111      1.96957947
H       0.90451071     -1.53560134     -0.64257758
H      -0.07231173      1.44726798     -0.28178968
H      -1.35667231     -1.09369219      0.90029672
H      -1.90997112      0.53281830      1.23425629
H      -2.55338422      0.75732152     -1.03594986
H      -1.97643957     -0.71178016     -1.41413950
