12
b3lypvtz=-189893.79561838
N      -2.39301854      0.44467777     -0.31701884
C      -1.21096529     -0.22953664     -0.26018584
C       0.01488676      0.29269182     -0.07733865
C       1.18373515     -0.59826606     -0.09959809
N       2.39555389      0.02678914      0.09333998
O       1.11896332     -1.81250971     -0.24377682
H      -2.43137527      1.40541261     -0.02252606
H      -3.24938852     -0.07108274     -0.23051316
H      -1.27987784     -1.30003461     -0.41566581
H       0.15437019      1.35507879      0.08747922
H       3.21498721     -0.53316241     -0.07170802
H       2.48212895      1.02004203     -0.03068791
