12
b3lypvtz=-187451.69809826
N       3.07916784      0.60149631     -0.13850961
C       1.81842917      0.75328835     -0.11616269
N       0.83651795     -0.21200416     -0.09979943
C      -0.52581604      0.04733033     -0.08309446
N      -1.36656261     -0.90095441     -0.09303568
N      -2.71657555     -0.57371405      0.00826279
H       3.34950119     -0.38314291     -0.14414536
H       1.41419085      1.76527602     -0.10766366
H       1.10460974     -1.18568084     -0.10580784
H      -0.78863041      1.10652397     -0.05402056
H      -2.95306563      0.30314757     -0.45105027
H      -3.25156651     -1.32156618     -0.40907324
