16
b3lypvtz=-147188.26224363
C      -2.20572473     -0.00000035      0.00000006
C      -0.87850380     -0.00000028     -0.00000142
C       0.01096092      1.22718942     -0.12283076
C       1.42027232      0.72937063      0.24153315
C       1.42027445     -0.72936922     -0.24152815
C       0.01096134     -1.22719000      0.12282702
H      -2.77448206      0.91899015     -0.07263906
H      -2.77448183     -0.91899091      0.07264042
H      -0.33225807      2.05561264      0.49757082
H       0.00063726      1.58021665     -1.15914283
H       2.21358859      1.32973554     -0.20400433
H       1.55810330      0.75822242      1.32581665
H       1.55811229     -0.75822068     -1.32581078
H       2.21358864     -1.32973334      0.20401409
H      -0.33225406     -2.05561054     -0.49758017
H       0.00063243     -1.58022215      1.15913728
