15
b3lypvtz=-157226.24221638
C      -3.29255143     -0.27458339     -0.00272066
C      -1.87586646      0.06292392      0.00744286
C      -0.70772704      0.34316927      0.00493581
C       0.71322439      0.67754183      0.02367940
N       1.55965371     -0.50476679     -0.14198074
C       2.97506885     -0.20764724      0.01976248
H      -3.87060704      0.47814037     -0.54263008
H      -3.46176056     -1.23602274     -0.49189645
H      -3.69375072     -0.33969542      1.01067349
H       0.93523309      1.36857234     -0.79652915
H       0.93729525      1.22903952      0.95368072
H       1.27054605     -1.21327195      0.52073410
H       3.30660580      0.44715368     -0.78937600
H       3.22609382      0.28812462      0.97155736
H       3.55037629     -1.13079603     -0.04756415
