11
b3lypvtz=-202342.8630426
C      -1.51512785      0.49088591     -0.66699787
C      -0.86881091     -0.27816042      0.21246146
N       0.43462050     -0.07911659      0.68722963
C       1.36455302      0.18862988     -0.12616509
O       2.61536549      0.44981725      0.27133453
O      -1.47955103     -1.34609866      0.79793219
H      -2.53713388      0.27154753     -0.93327809
H      -1.04136475      1.36151744     -1.08963822
H       1.26371559      0.23346204     -1.20909905
H       2.62993901      0.41559508      1.23992648
H      -0.86620520     -1.70807947      1.44749971
