9
b3lypvtz=-175841.39512797
C       0.25700095      1.56853171     -0.00000706
C      -0.04304397      0.26876687     -0.00026476
C      -1.39813744     -0.19689556     -0.00006148
N      -2.49075606     -0.56117148      0.00010411
N       0.92047207     -0.81547842     -0.00019526
N       2.09917833     -0.44016333     -0.00024832
H      -0.51882697      2.31919657      0.00032700
H       1.29211497      1.87864120     -0.00011052
H       2.67653711     -1.29087155     -0.00072371
