12
b3lypvtz=-187421.41435299
C       2.70323246      0.24385304     -0.02163431
C       1.44244443      0.18120400     -0.45476314
N       0.32748980      0.06284755      0.34307487
N      -0.90406360     -0.00372475     -0.21233952
N      -1.80889439     -0.13088314      0.63062593
N      -3.06649005     -0.10159807      0.06611253
H       3.51018677      0.34114100     -0.72987045
H       2.95854207      0.20284356      1.02910700
H       1.19512915      0.22441509     -1.50702552
H       0.38853768      0.01433605      1.35261400
H      -3.68498012     -0.68565054      0.60941107
H      -3.06113423     -0.34878381     -0.92011293
