11
b3lypvtz=-179051.29379382
C      -1.64389789     -0.33783515      0.10088281
C      -0.20438149      0.00015521      0.01177916
C       0.51107112      1.14680570     -0.04929188
N       1.86787315      0.85055933     -0.12260208
C       1.91128349     -0.43474125     -0.10304150
O       0.69762723     -1.03751470     -0.02251707
H      -2.23576376      0.57576903      0.11884805
H      -1.96493954     -0.93811710     -0.75309827
H      -1.86331339     -0.90696944      1.00680087
H       0.15184412      2.16140600     -0.04597268
H       2.77259696     -1.07951766     -0.14178740
