11
b3lypvtz=-204912.85043225
C      -1.80889289      0.12633096     -0.09458077
C      -0.33532322      0.16134126     -0.31213625
C       0.58085025     -0.32672755      0.51802112
F       0.23764932     -0.91999903      1.67631825
N       1.98390922     -0.33224964      0.38488939
N       2.43018633      0.19088902     -0.65130853
H      -2.30417190     -0.40864006     -0.90955867
H      -2.22045804      1.13938455     -0.09330771
H      -2.07114994     -0.35478867      0.84477397
H       0.05464145      0.61627037     -1.21363895
H       3.45285943      0.10808880     -0.59947186
