14
b3lypvtz=-216340.41473713
C      -1.29527119     -1.11125060      0.11514360
C      -0.60105202      0.20695372     -0.16060308
C       0.89418623      0.04896992     -0.45326501
O       1.59647369     -0.44844199      0.65213470
O       1.34710229      1.34915436     -0.81138232
O      -0.73988281      1.03130483      1.00129485
H      -0.82922964     -1.62322495      0.95672304
H      -1.24030543     -1.76305823     -0.75793056
H      -2.34444810     -0.93660721      0.35016189
H      -1.05869902      0.69904244     -1.02528118
H       1.07149157     -0.65700885     -1.26954887
H       1.22732065     -0.00599684      1.43066775
H       2.31007320      1.32779718     -0.81680158
H      -0.33775942      1.88236625      0.78868679
