9
b3lypvtz=-199133.99504223
N      -2.74284651      0.26394667      0.00012500
N      -1.72845613     -0.43501167     -0.00000601
N      -0.56858859      0.40231918     -0.00021143
C       0.48749714     -0.30918961     -0.00011048
C       1.80417925      0.38294083      0.00000353
O       2.84716573     -0.22155253      0.00016268
H      -3.53072747     -0.39737755     -0.00001802
H       0.47482740     -1.39939646     -0.00007365
H       1.74911817      1.48537714      0.00001140
