10
b3lypvtz=-207531.80216653
N       2.36029502     -0.44948069      0.24418061
N       1.33037660      0.42044289      0.06322314
N       0.21583102     -0.12800409      0.12640058
N      -0.78568759      0.79827011      0.02418540
N      -2.08821383      0.51738922      0.11370463
N      -2.38660109     -0.69110256      0.21997008
H       3.18774319     -0.12614639     -0.23138053
H       2.12126547     -1.42234909      0.07617968
H      -0.54725105      1.77976981      0.00182196
H      -3.40775773     -0.69878921      0.26621685
