14
b3lypvtz=-169705.78952022
C       2.98652961      0.06834888     -0.11748597
C       1.54224451      0.02526223      0.06151349
C       0.34853807     -0.00396131      0.20321687
C      -1.10559066     -0.06319431      0.38458998
C      -1.81728796      1.15981307     -0.18419058
O      -1.67583870     -1.20934008     -0.26084513
H       3.32468961      1.08589869     -0.32313138
H       3.50799507     -0.28391713      0.77464818
H       3.29504888     -0.55950426     -0.95574626
H      -1.31050425     -0.11642174      1.46198857
H      -2.89092327      1.06080848     -0.02503637
H      -1.62540438      1.23861955     -1.25355836
H      -1.46734748      2.06771963      0.30613792
H      -1.13979105     -1.97659670     -0.03695198
