15
b3lypvtz=-180545.2544813
N       2.68447987     -0.39500203     -0.51800115
C       1.81349169      0.28868027      0.45304719
C       0.37527082     -0.07175753      0.22986521
C      -0.59123154      0.79044582     -0.05761114
C      -2.03927836      0.44531901     -0.25870619
O      -2.37888492     -0.90223890      0.02570087
H       2.56751114     -1.39965858     -0.44068962
H       3.65685873     -0.20510267     -0.30238945
H       1.94451228      1.36520464      0.32557623
H       2.07486500      0.05767792      1.49809158
H       0.12740743     -1.12704988      0.31060909
H      -0.35467043      1.84634485     -0.16506400
H      -2.66017877      1.13830361      0.32615370
H      -2.31149007      0.60313173     -1.30626494
H      -2.19828187     -1.06610226      0.95703863
