10
b3lypvtz=-189121.99502846
N       2.76172328      0.42836359     -0.13107965
C       1.74117212     -0.00234995      0.17652781
C       0.43818799     -0.53137420      0.54885710
C      -0.71376813      0.12797601     -0.19301695
N      -0.69918899      1.04097333     -1.05786408
O      -1.87459170     -0.42974605      0.21907319
H       0.28254398     -0.40469712      1.62268298
H       0.40938997     -1.60649717      0.35760860
H       0.23877428      1.36616844     -1.27173733
H      -2.58404281      0.01118313     -0.27095167
