14
b3lypvtz=-193020.08777083
C      -1.41769994     -0.18699498     -0.74301099
C      -1.44691403     -0.05623700      0.75568926
C      -0.27193776      0.46445053     -0.02343761
C       1.05257267     -0.24275012      0.05286594
O       1.76429994      0.31293680      1.14032527
O       1.80547810     -0.15706284     -1.14161465
H      -2.07326223      0.44134867     -1.32920361
H      -1.24955529     -1.16855790     -1.16537341
H      -2.11993008      0.66294794      1.20028788
H      -1.29936871     -0.95017130      1.34667554
H      -0.17751625      1.54204305     -0.10252400
H       0.90096474     -1.31865340      0.19403899
H       2.62428587     -0.12032820      1.17503779
H       1.90858293      0.77702873     -1.35975642
