11
b3lypvtz=-202344.89040021
N       2.24596035     -0.35182869      0.69732373
C       1.16014866     -0.00451497      0.13867398
O       1.13346978      0.84481880     -0.92733440
C      -0.11298079     -0.52942725      0.65019679
C      -1.34097071     -0.27990823      0.19677155
O      -1.58629911      0.54864981     -0.86899899
H       3.03720903      0.09194221      0.23213906
H       0.22333594      0.99401450     -1.21802427
H      -0.01682730     -1.19452897      1.49429246
H      -2.21531785     -0.72512684      0.65395597
H      -2.52762800      0.60600962     -1.04909587
