10
b3lypvtz=-191513.78467481
C      -1.29843962      0.36125413      0.24196788
C      -0.04938296      1.07049805      0.20263227
C       0.90413129      0.10769207      0.23406853
O       0.36290024     -1.12993493      0.28922914
C      -1.00962898     -0.95671096      0.29352963
O       2.24443375      0.18570362      0.21975349
H      -2.28458942      0.79333757      0.23241978
H       0.11396885      2.13166567      0.15786442
H      -1.59256405     -1.85711612      0.33517955
H       2.60917088     -0.70638909      0.25294661
