12
b3lypvtz=-246489.12417094
C       1.54097030      1.09257543      0.02110772
C       0.65801248     -0.10207226     -0.31476754
O       1.18842546     -1.32086829      0.19440781
C      -0.72072147      0.01306585      0.31672000
F      -1.28917496      1.21097908     -0.02565710
F      -1.54067234     -0.96796467     -0.15226732
H       2.52684581      0.96334108     -0.42888818
H       1.67123837      1.18213109      1.10066956
H       1.11300560      2.01840732     -0.36136972
H       0.50139215     -0.16716469     -1.39824807
H       2.02637413     -1.49913076     -0.24161565
H      -0.69035453     -0.05897017      1.40611350
