17
b3lypvtz=-157999.50932731
C      -1.79581497     -0.97183627     -0.17555035
C      -0.66497565     -0.12249051      0.36795816
C      -0.65882941      1.40452498      0.11851622
C       0.84886615      1.23965597     -0.16546837
N       0.62255608     -0.20409308     -0.36030127
C       1.62987968     -1.13066554      0.10126608
H      -1.94544693     -0.77108774     -1.23726281
H      -2.72720631     -0.76137991      0.35564444
H      -1.58138856     -2.03654977     -0.05818566
H      -0.52521564     -0.32819930      1.44198796
H      -0.94523354      2.04730515      0.94738133
H      -1.22597415      1.67795490     -0.77031546
H       1.27662028      1.76015490     -1.02430681
H       1.45912404      1.46048548      0.72296770
H       2.53749774     -1.02142180     -0.49564413
H       1.89790491     -0.98098796      1.16216454
H       1.27755229     -2.15676751     -0.01892857
