12
b3lypvtz=-166557.96471903
C       2.21491539     -0.70498861     -0.13384848
C       1.08676730     -0.30626713      0.43666898
C      -0.06133978      0.32581851     -0.32227182
N      -0.32727478      1.73003369      0.01996915
C      -1.29431035     -0.45251178     -0.11993386
N      -2.24115503     -1.07818086      0.06570686
H       3.02970720     -1.11513150      0.44749603
H       2.36381967     -0.63966335     -1.20560025
H       0.94974492     -0.38743444      1.51050845
H       0.16600553      0.28650217     -1.39132177
H       0.52696841      2.26440803     -0.09041773
H      -0.61194449      1.81246826      0.98977343
