15
b3lypvtz=-178159.74063878
C       2.60730308     -0.10491779      0.05992564
N       1.24856448      0.34569464     -0.21681878
C       0.22569696     -0.62900113      0.13968905
C      -1.19483350     -0.08591710      0.02533753
N      -2.24098877     -0.80709878     -0.10787442
N      -1.28107301      1.27324956      0.09756418
H       2.86792992     -1.05995144     -0.41982478
H       3.31743059      0.65067138     -0.27578128
H       2.73711575     -0.22851438      1.13673133
H       1.15929908      0.58805177     -1.19647006
H       0.28195365     -1.55973104     -0.44331322
H       0.38715433     -0.90668657      1.18620577
H      -1.99174131     -1.78916183     -0.18685804
H      -0.46314626      1.79042118      0.36756159
H      -2.19349199      1.68048654      0.20354651
