15
b3lypvtz=-157250.33127596
C       2.36818147     -0.59670500      0.02129306
C       1.04475107     -0.71573416     -0.02673285
C       0.08552289      0.41459192      0.08863589
N       0.32107317      1.61920840     -0.25319972
C      -1.28160965      0.07230878      0.63807543
C      -2.18412414     -0.58854759     -0.41410155
H       3.01614384     -1.45931786     -0.05413874
H       2.85067148      0.36474622      0.15306425
H       0.60887151     -1.70621572     -0.10895162
H       1.25445690      1.71023400     -0.65754355
H      -1.73773954      0.99797067      0.98634302
H      -1.17413807     -0.59537576      1.49768835
H      -3.15894379     -0.82639707      0.01332435
H      -1.75557690     -1.51762787     -0.79473059
H      -2.33805124      0.08179704     -1.26019972
