13
b3lypvtz=-203090.67909091
C      -2.51571445     -0.06862580      0.37940932
N      -1.39710883      0.10489878     -0.54374289
C      -0.22247777     -0.60955859     -0.21778179
C       0.96566544     -0.04671069      0.00951254
O       1.13781675      1.30021224      0.08273929
O       2.15920683     -0.70348055      0.16528026
H      -2.80926143     -1.12005151      0.39938557
H      -3.37078329      0.50538600      0.02099752
H      -2.29315461      0.23635405      1.41130019
H      -1.18594001      1.08456884     -0.67573098
H      -0.30829841     -1.68933471     -0.19923791
H       2.06961289      1.49038139     -0.07544359
H       2.04564489     -1.62749445     -0.07908452
