11
b3lypvtz=-199905.90458662
N       2.77846638     -0.27353725      0.10209181
N       1.72470426      0.20878698     -0.35960746
N       0.62770844     -0.14172356      0.32349721
C      -0.59515048      0.58217584      0.08696411
C      -1.76300332     -0.33581518     -0.23728925
O      -2.90643728     -0.07204794      0.01806531
H       3.52471311      0.04087765     -0.52013500
H       0.79238007     -0.60961022      1.20998602
H      -0.42421063      1.21488907     -0.78836115
H      -0.87643218      1.23532054      0.91743232
H      -1.47616538     -1.27808293     -0.74852192
