12
b3lypvtz=-166542.1118530679
C      -2.03715249      0.21035513     -0.51407456
C      -0.66925872     -0.36992871     -0.34180955
C       0.37636800      0.28921963      0.17094257
C       1.69942616     -0.26463924      0.34007860
N       2.66468741      0.44305825      0.84772601
N       3.50174784      1.06782093      1.29177762
H      -2.34896721      0.19451763     -1.56289342
H      -2.07984392      1.24371137     -0.16733348
H      -2.78695029     -0.36174599      0.04087896
H      -0.53502487     -1.39974006     -0.66119921
H       0.24958979      1.31871721      0.49213039
H       1.96537830     -1.27384233      0.06377605
