13
b3lypvtz=-156438.08564222595
C      -1.30543792      0.68570221      0.25751392
C      -0.72557672      0.09559964      1.30572227
C      -0.09809762     -1.00369459      0.46424190
C      -0.76280776     -0.32721828     -0.73737377
C       0.74985517     -0.42271921     -0.65277330
N       1.66090319      0.68942809     -0.53043458
H      -1.82743269      1.62310286      0.12229703
H      -0.59877431      0.37275997      2.34330084
H      -0.10357823     -2.06206719      0.68002314
H      -1.31953307     -0.82469922     -1.51795859
H       1.12902301     -1.20824377     -1.30465383
H       1.95453119      0.83071334      0.42540703
H       1.24692579      1.55133614     -0.85531208
