15
b3lypvtz=-180545.95242871
C      -2.01471195      0.22576635     -0.41345901
C      -0.75192955     -0.59086966     -0.30117411
C      -0.10706473     -0.83482191      1.06249692
C       0.56300952      0.04660298      0.05457612
N       1.73884223     -0.32220982     -0.68073235
O       0.58351281      1.40342300      0.41103677
H      -1.97200946      1.09363042      0.24387828
H      -2.89118936     -0.36644379     -0.14211554
H      -2.16150869      0.58769739     -1.43379749
H      -0.69056777     -1.42619102     -0.99188634
H      -0.56623370     -0.35242072      1.91552099
H       0.32625321     -1.80611298      1.26003327
H       2.53066133     -0.47978696     -0.06784111
H       1.59392154     -1.14627887     -1.24675013
H       0.85843557      1.88580760     -0.37852627
