15
b3lypvtz=-180559.39508099
N      -2.57822512     -0.32835475     -0.11523116
C      -1.27279370     -0.05416558      0.49584405
C      -0.37671912      0.69113055     -0.49103871
C       1.00032490      1.02968500      0.07351740
C       1.96770722     -0.12274655      0.17009322
O       1.76403646     -1.23945896     -0.23312393
H      -3.20331643     -0.74796160      0.56286257
H      -2.47351657     -1.00631547     -0.86229767
H      -1.44434517      0.57944931      1.37084267
H      -0.75460238     -0.95514181      0.84656682
H      -0.24984116      0.08155293     -1.38923540
H      -0.88585200      1.60657412     -0.79686881
H       0.93216454      1.48500403      1.06939141
H       1.50293255      1.78817893     -0.54005444
H       2.94011199      0.13200684      0.64338999
