11
b3lypvtz=-233253.23007222
C       1.75654657     -0.91091189     -0.25992438
C       0.78198602     -0.02660261     -0.02793334
N       0.93633248      1.27257035      0.42476907
C      -0.64930486     -0.45469067     -0.18769807
F      -1.30181235     -0.46507235      1.01398316
F      -1.32499858      0.44738502     -0.97918057
H       1.52086819     -1.92457398     -0.54499322
H       2.80125607     -0.65416370     -0.14901128
H       1.86278311      1.65786037      0.33841413
H       0.21657311      1.91705121      0.13705528
H      -0.74312877     -1.44017474     -0.64107679
