15
b3lypvtz=-178170.45617254
C      -2.65798999     -0.30298681     -0.09026934
C      -1.33277845      0.42976520      0.08423652
N      -0.22982382     -0.51274886      0.09612758
C       0.96462781     -0.07942199      0.01318858
N       1.38031597      1.24801710      0.03199814
N       2.02968292     -0.97395315     -0.11227176
H      -3.49730509      0.39537794     -0.08571333
H      -2.80034995     -1.02310315      0.71609536
H      -2.66832610     -0.85190295     -1.03275156
H      -1.22829243      1.16980633     -0.72646348
H      -1.36270666      1.00197623      1.02242227
H       0.65020853      1.92892085     -0.09579201
H       2.20203134      1.44619766     -0.51761133
H       1.71688816     -1.92332778      0.02731900
H       2.82693676     -0.75010062      0.46646036
