9
b3lypvtz=-255766.08375866
C       0.08859775      0.03810558      0.36199503
N       1.04711685     -0.12572007     -0.45011367
O       2.27899875     -0.13167492      0.18804260
C      -1.29220411      0.06316585     -0.20149152
F      -2.04409610     -0.92446248      0.37462313
F      -1.89701516      1.25028769      0.11089122
H       0.22267141      0.15947192      1.43436190
H       2.90179429     -0.26212875     -0.53545507
H      -1.30586369     -0.06704483     -1.28285361
