12
b3lypvtz=-168957.15900854
C       1.98323721      0.10379953     -0.22230823
C       0.66302084      0.06221609     -0.10485979
C      -0.40289299     -1.00749480      0.11441001
C      -1.50435201      0.10075473      0.07291691
C      -0.38624948      1.13781775     -0.14540598
O      -0.36471725      2.32852827     -0.29005142
H       2.60014762     -0.78465982     -0.16797863
H       2.48317908      1.05171043     -0.37890424
H      -0.47327513     -1.74490174     -0.68463676
H      -0.32572686     -1.53213099      1.06629044
H      -2.20912927      0.03679238     -0.75623554
H      -2.06334175      0.24756817      0.99716322
