15
b3lypvtz=-178158.55696766
N       2.75864797     -0.03163937      0.53975361
C       1.65798421      0.18626883     -0.25345332
N       0.55661593      0.61832175      0.19769129
C      -0.50596451      0.89857939     -0.74994591
C      -1.78548863      0.16008234     -0.36849963
N      -1.58279724     -1.28835211     -0.45164712
H       3.44075024     -0.69475681      0.21426216
H       2.58759334     -0.03745359      1.53328995
H       1.84081953     -0.00250999     -1.31823365
H      -0.22779310      0.62274752     -1.77767079
H      -0.71394257      1.97358263     -0.73572787
H      -2.10074185      0.50603426      0.62549683
H      -2.57001765      0.43761194     -1.07663413
H      -0.91120461     -1.56987880      0.25369940
H      -2.44446107     -1.77853799     -0.24418081
