14
b3lypvtz=-190591.4505108972
C      -1.79793361      0.12047358      0.82358994
C      -0.97746511      0.04442958     -0.47426358
C       0.48914083      0.16021953     -0.26819131
N       1.34442054     -0.79460404     -0.52924823
N       2.67893453     -0.84587312     -0.38548316
O       0.96684217      1.32771453      0.21458938
H      -1.60620409      1.05669443      1.34683009
H      -2.86469332      0.06720164      0.60267282
H      -1.54556747     -0.70128864      1.49472287
H      -1.29729341      0.84855321     -1.14552952
H      -1.18105789     -0.89927109     -0.98664735
H       0.96104844     -1.61382028     -0.98555930
H       2.92309410     -0.15717286      0.32886451
H       1.90673426      1.38674355     -0.03634715
