11
b3lypvtz=-179040.1150514
N       2.07314802     -0.17112895     -0.00000149
C       0.81933931     -0.01147303      0.00000708
C      -0.03730866      1.18852173     -0.00000222
C      -1.31175525      0.81158279      0.00000130
C      -1.37307277     -0.68323488     -0.00000149
O      -0.00855251     -1.10593451     -0.00000086
H       2.54262439      0.72959184      0.00000037
H       0.35424824      2.19356432     -0.00001049
H      -2.18677984      1.44433126      0.00000677
H      -1.87453724     -1.08710198     -0.88516286
H      -1.87453569     -1.08710158      0.88516088
