14
b3lypvtz=-216328.59868353
C      -2.21371809     -0.34134416     -0.14237644
O      -0.83990762     -0.68254644     -0.02218066
C      -0.03113364      0.34372566      0.51943251
O      -0.01781885      1.49503544     -0.28417477
C       1.36327158     -0.25499954      0.64567786
O       1.89869706     -0.51977940     -0.64729791
H      -2.64719460     -0.11558018      0.83872542
H      -2.35459094      0.51946359     -0.79822118
H      -2.71994179     -1.20767832     -0.56286450
H      -0.42599933      0.65719853      1.49266200
H       0.58371967      1.30769560     -1.01876445
H       1.32496260     -1.15940986      1.25920703
H       2.02862359      0.46706837      1.11656285
H       1.32633636     -1.17846829     -1.05793675
