15
b3lypvtz=-157250.00379132
C       1.97354403     -0.74216354      0.10657701
C       0.52542833     -1.08870484     -0.06020332
C      -0.53891358     -0.28046143      0.02326832
C      -1.94764719     -0.80923823     -0.08933014
C      -0.44792386      1.17514635      0.28891782
N       0.33532078      2.03576350     -0.22206327
H       2.46372964     -1.47740036      0.74904474
H       2.49989197     -0.77348304     -0.85280046
H       2.12458127      0.24573195      0.53834493
H       0.32570752     -2.14134834     -0.24179327
H      -1.95555818     -1.88758478     -0.24319658
H      -2.52175613     -0.59042453      0.81555974
H      -2.48169497     -0.34156308     -0.92076523
H      -1.18332170      1.55419621      1.00584323
H       0.95303208      1.59804516     -0.90781152
