13
b3lypvtz=-179825.69225414
O       1.40686362      2.17630355     -0.05676760
C       0.72029215      1.17706786     -0.03041381
C       1.19204736     -0.26732552      0.13612380
C      -0.03946833     -1.11713237     -0.20344400
C      -1.23026146     -0.17774612      0.08017034
N      -0.64347696      1.13665823     -0.12623463
H       2.05902222     -0.45883588     -0.49222420
H       1.50754592     -0.39233052      1.17512997
H      -0.03062471     -1.37930645     -1.26194102
H      -0.10398796     -2.04141363      0.36767870
H      -1.59801447     -0.29686633      1.10561441
H      -2.06665322     -0.35119695     -0.59758335
H      -1.17318415      1.99222414     -0.09610860
