15
b3lypvtz=-185549.61865884
F      -1.69821784     -0.98220453     -0.06615096
C      -1.48100340      0.29374639      0.47061565
C      -0.47642547      1.07761984     -0.34834793
C       0.96815704      0.60722832     -0.34742972
C       1.37672256     -0.83233472     -0.50426268
C       1.61139028     -0.12013742      0.80433520
H      -1.15561688      0.15796640      1.50362772
H      -2.44555246      0.80485285      0.47302266
H      -0.50907753      2.10427759      0.03450223
H      -0.84163979      1.12532563     -1.37877251
H       1.61958536      1.31434410     -0.84804368
H       0.59616440     -1.57755721     -0.53146649
H       2.23284991     -1.05093298     -1.12772004
H       0.99773374     -0.41198226      1.64533323
H       2.62326507      0.14889999      1.07421533
