16
b3lypvtz=-170484.62124712
C       0.90822718      1.36495865      0.06866462
C       0.59901497     -0.09909310     -0.09460160
C      -0.62525662     -0.61310186     -0.25078569
C      -1.93840188      0.10521441     -0.26760953
O      -2.84208696     -0.40995844      0.71836235
C       1.81158427     -0.99188278     -0.08695379
H       1.50123607      1.72526465     -0.77746057
H       0.02198392      1.99028641      0.14186113
H       1.51663207      1.52831691      0.96271741
H      -0.71545979     -1.69012929     -0.36296295
H      -1.81659587      1.18509258     -0.14932390
H      -2.44661819     -0.05944651     -1.22042744
H      -2.38931361     -0.39051833      1.56751020
H       2.50062424     -0.72295169     -0.89334981
H       1.54404660     -2.04126724     -0.20306688
H       2.37038358     -0.88078437      0.84742647
