12
b3lypvtz=-168974.86686154
C       2.17187301      0.02697094      0.00000396
C       0.67671727      0.00622821     -0.00000286
C      -0.13479866     -1.08133272     -0.00003673
O      -1.44898844     -0.71347382     -0.00001592
C      -1.46985852      0.64589357      0.00004153
C      -0.20875856      1.13882209     -0.00001354
H       2.58031640     -0.98362287     -0.00013184
H       2.56266568      0.54413327      0.87923751
H       2.56267262      0.54437176     -0.87908470
H       0.05835022     -2.13950723     -0.00005712
H      -2.44290856      1.10347990      0.00005821
H       0.07007353      2.17947588     -0.00001051
