14
b3lypvtz=-167312.55497056
C      -3.03319196      0.04590042      0.08133440
N      -1.87447084     -0.47173423     -0.02078679
C      -0.75075144      0.33240336      0.00203261
C       0.46949535     -0.22776312     -0.12183504
N       1.66692400      0.43186475     -0.19897765
C       2.90667067     -0.23461726      0.15569355
H      -3.90612996     -0.59878892      0.06849078
H      -3.20282229      1.12403549      0.18358961
H      -0.86443754      1.41456113      0.10882817
H       0.52861431     -1.30589693     -0.21340916
H       1.63584364      1.41842884      0.00573808
H       3.75144226      0.35275249     -0.20219634
H       2.94703498     -1.20800725     -0.33381183
H       3.02456183     -0.39118077      1.23499662
