16
b3lypvtz=-168082.68843096
C      -1.86807483      1.03353667     -0.30655062
C      -0.76815428     -0.02677849     -0.24923947
N      -1.39878955     -1.34070790      0.01622945
C       0.31147904      0.34660349      0.73331986
C       1.63220539      0.25629825      0.53877275
N       2.29724889     -0.23282328     -0.58490861
H      -2.64231559      0.74151938     -1.01631659
H      -1.46260488      2.00237123     -0.59899983
H      -2.33529472      1.15247724      0.67519213
H      -0.33672581     -0.10446975     -1.25259118
H      -0.67426572     -2.04213488      0.12933449
H      -1.88078198     -1.30103302      0.90982552
H      -0.02074934      0.68202557      1.70979732
H       2.30516134      0.52761976      1.34410372
H       3.20839285      0.16578735     -0.74467560
H       1.75641719     -0.27627562     -1.43448732
