13
b3lypvtz=-179794.33497822
C       2.10932744     -0.14203739      0.18943388
C       0.79973644      0.53060725     -0.05181251
C      -0.40049758     -0.06409501     -0.02832260
C      -1.62762165      0.70566033     -0.26695884
N      -2.83661976      0.32623458     -0.14824891
O      -0.51214682     -1.39771738      0.26153505
H       1.99440618     -1.21975091      0.28188375
H       2.57768896      0.23023769      1.10547746
H       2.80830607      0.06738313     -0.62442011
H       0.80511451      1.59605638     -0.24589397
H      -1.45496399      1.73199543     -0.59080133
H      -2.91190624     -0.63432840      0.19637946
H      -1.35082356     -1.73024572     -0.07825135
