16
b3lypvtz=-168066.57662948
N      -2.21208296     -0.80586415     -0.05665326
C      -1.50604021      0.48378391     -0.06169809
C      -0.09895728      0.33264953      0.45651018
C       0.98850318      1.28553315      0.00664085
C       1.01228388     -0.14198433     -0.44598862
N       2.08403940     -1.01076319     -0.02176077
H      -3.14665122     -0.69507664     -0.43326153
H      -2.32773013     -1.13387221      0.89610039
H      -1.46603881      0.83464685     -1.09650740
H      -2.02269513      1.26763044      0.51257849
H      -0.02695163      0.00625024      1.49007778
H       0.73580990      2.05433249     -0.71186761
H       1.72541116      1.59397731      0.73752710
H       0.72418910     -0.31876921     -1.47588643
H       2.48032397     -0.69711174      0.85575835
H       1.74037576     -1.95339247      0.12460757
