11
b3lypvtz=-155716.25140406
C      -2.34340401     -0.28190259     -0.18673426
C      -0.93311288      0.03333299     -0.35771198
C       0.23097922      0.28635174     -0.49672467
C       1.64736078      0.60225800     -0.66898561
C       2.53638590     -0.51056481     -0.31560446
N       3.24685649     -1.37194008     -0.04287789
H      -2.81856259      0.41108371      0.50982239
H      -2.46836198     -1.29224359      0.20674387
H      -2.87623089     -0.22322765     -1.13743871
H       1.85329760      0.88277202     -1.70624446
H       1.92479237      1.46408025     -0.05474421
