13
b3lypvtz=-179771.66035636
C      -1.60818279      0.35195904      0.48084511
C      -1.14554067     -0.93660866     -0.09647673
N      -0.22907356     -0.08302201      0.65682857
C       0.77734016      0.62548099     -0.11511619
C       2.06878975     -0.16556414     -0.17586788
O       2.88879718     -0.04441827     -1.04757616
H      -2.21416183      0.36371077      1.37780959
H      -1.79970416      1.16496875     -0.21210392
H      -1.40858975     -1.87402390      0.37587930
H      -1.02389223     -0.98272146     -1.17403798
H       1.00849674      1.56661367      0.39806127
H       0.46960482      0.87965236     -1.13918118
H       2.21611635     -0.86602715      0.67093620
