11
b3lypvtz=-199923.29306239
N      -2.25269909     -0.05623130      0.00357990
N      -1.21125650     -0.77674478     -0.00085483
C      -0.06086854     -0.02787543      0.00031020
O      -0.13462879      1.32945511      0.00156686
C       1.13356126     -0.66735578      0.00488664
N       2.33256973     -0.02673778     -0.03361394
H      -3.06003841     -0.68239701      0.00736259
H      -1.09711530      1.50936499      0.00850968
H       1.13041958     -1.74601733      0.00533600
H       3.16406453     -0.52549760      0.22407831
H       2.33936553      0.96782190      0.12086159
