15
b3lypvtz=-180546.24723267
C       2.83773263     -0.41734633      0.12866123
C       1.65568350      0.51382571     -0.04110130
O       0.46175128     -0.25401272      0.00601612
C      -0.70886818      0.51526520     -0.15655198
C      -1.89739234     -0.41014835     -0.19071466
N      -3.06367633     -0.17414083      0.23657193
H       3.77064637      0.14733077      0.09795535
H       2.78094732     -0.93880738      1.08425096
H       2.85782662     -1.16153004     -0.66769290
H       1.64225375      1.27162292      0.75401122
H       1.71440336      1.04718183     -0.99996127
H      -0.66907058      1.07617685     -1.10465371
H      -0.82320230      1.24908647      0.65372268
H      -1.70421120     -1.37557695     -0.66230249
H      -3.11771293      0.75283884      0.66741982
