10
b3lypvtz=-217407.98857921
N      -2.50157050     -0.10135373      0.00005027
C      -1.36568581     -0.65345740     -0.00001302
C      -0.06677592      0.13505227     -0.00005208
O      -0.06775509      1.33950570     -0.00002508
C       1.19724020     -0.69820010      0.00000571
F       2.32430827      0.07889687      0.00001986
H      -2.37816639      0.91845369      0.00005984
H      -1.30373063     -1.74281110     -0.00004206
H       1.20156405     -1.34486427      0.88536738
H       1.20163782     -1.34494095     -0.88529781
