15
b3lypvtz=-180542.65831773164
C       1.74648135     -0.61777579     -0.10547738
N       0.42216205     -0.12867529     -0.42404498
C       0.06263591      1.27703493     -0.15298538
C      -1.36371129      0.80285162      0.20052729
C      -0.73327053     -0.60303360      0.33780493
O      -1.37678316     -1.73535999     -0.17539504
H       2.48174483     -0.17611851     -0.78020854
H       2.04902981     -0.38934357      0.92938893
H       1.77408493     -1.69938703     -0.24130421
H       0.58708017      1.69445268      0.71699097
H       0.18983386      1.95423415     -0.99877317
H      -2.05018914      0.85575905     -0.64341249
H      -1.83463668      1.22473755      1.08468501
H      -0.49940988     -0.85475185      1.38048660
H      -1.45505224     -1.60462435     -1.12828251
