12
b3lypvtz=-166574.47387206
C       2.17478975      0.02891529     -0.00005567
C       0.67829475      0.01179060     -0.00015908
C      -0.18417626      1.08700630     -0.00016855
N      -1.44255659      0.58035293     -0.00001710
H      -2.31038105      1.08561272     -0.00027115
N      -1.46566971     -0.76201001      0.00018467
C      -0.18448649     -1.10949846      0.00005865
H       2.58239780     -0.47140096      0.88111357
H       2.58249262     -0.47855457     -0.87705412
H       2.55709382      1.04981404     -0.00413695
H       0.00279447      2.14761355     -0.00003703
H       0.08340391     -2.15448542      0.00044377
