14
b3lypvtz=-190590.6270992407
C      -1.20063683     -0.95525070     -0.52808847
C      -0.50446109      0.13879799      0.29101146
C       0.81559662     -0.33876537      0.83340356
N       1.93747921      0.07892941      0.32919509
O       3.12047608     -0.24059190      0.64487662
N      -0.29366410      1.32620726     -0.55144811
H      -1.29656012     -1.87185254      0.05339900
H      -0.62284283     -1.17893884     -1.42593259
H      -2.20355854     -0.63743773     -0.82317971
H      -1.15074602      0.35987775      1.15222267
H       0.87457050     -1.06586808      1.63041283
H       1.81445460      0.76358161     -0.43082953
H      -0.22095170      2.16457681      0.01274810
H      -1.06915580      1.45673432     -1.18779093
