15
b3lypvtz=-180555.94367848
C      -2.24146162     -0.77274747      0.14689773
C      -0.97204214     -0.00839919     -0.04647598
O      -1.19314844      1.33448571      0.12149856
C       0.21170791     -0.55643902     -0.34270400
C       1.52141947      0.16189336     -0.50720143
N       2.55001057     -0.13991506      0.50536574
H      -2.07709461     -1.84100571      0.02588479
H      -2.99540112     -0.44596921     -0.57285223
H      -2.64736706     -0.58655087      1.14389681
H      -0.37180584      1.81842631     -0.01679187
H       0.23802592     -1.63427008     -0.44866741
H       1.38507117      1.24870964     -0.51309988
H       1.95709752     -0.07203457     -1.48207649
H       2.14605428     -0.05312803      1.43206085
H       2.83713599     -1.10883279      0.41932282
