14
b3lypvtz=-193028.81635231
C       1.66648193     -1.08807765     -0.48451008
C       0.89206511     -0.02140051     -0.30887265
O       1.14423946      1.16008406     -0.94229194
C      -0.35170326     -0.00395958      0.55559910
C      -1.63334211     -0.10514347     -0.26219376
O      -0.42173895      1.24878275      1.26475084
H       2.52345134     -1.05811442     -1.14145706
H       1.43368420     -2.01519428      0.01723093
H       0.61933270      1.83855779     -0.49274814
H      -0.30247422     -0.83414903      1.26416000
H      -2.49898020     -0.02916838      0.39540171
H      -1.68457460      0.69833087     -0.99741083
H      -1.66849348     -1.05703418     -0.79027720
H       0.28195207      1.26668603      1.92271908
