17
b3lypvtz=-157934.7785436035
C      -2.20001844      0.59504227      0.26420817
C      -0.84314145      0.46920260      0.92023746
N       0.16939618     -0.02999254     -0.10517118
C       0.09936124     -1.46877100     -0.57582674
C       1.47423270      0.31478582      0.44401036
C       2.42568083      0.90772883     -0.26086284
H      -2.63731389     -0.31267476     -0.20043737
H      -2.91623284      0.92139742      1.02051529
H      -2.20703086      1.37478087     -0.50904400
H      -0.83665404     -0.30042168      1.69960991
H       0.02464488      0.55702002     -0.92468529
H      -0.92002985     -1.66886965     -0.89417686
H       0.79860033     -1.64621516     -1.39343494
H       0.35006714     -2.09946395      0.27258306
H       1.56530176      0.02736024      1.47930004
H       3.36450339      1.17288187      0.20193351
H       2.28863293      1.18620880     -1.29843434
