13
b3lypvtz=-156477.88019718
C       2.38666195     -0.22949746      0.34815402
C       1.23778631     -0.59437333     -0.21565605
C      -0.02114669      0.16974271     -0.18166851
C      -0.07258299      1.50554335     -0.23256257
C      -1.26618901     -0.64778645     -0.15318318
N      -2.38777351     -0.36260281      0.36431688
H       3.26962102     -0.84897585      0.27068484
H       2.47948659      0.68840907      0.91492224
H       1.18788808     -1.55360993     -0.72336686
H      -1.01710082      2.03371350     -0.23226488
H       0.82468150      2.10396804     -0.30796727
H      -1.18089656     -1.62588864     -0.63405048
H      -2.35864186      0.55190583      0.82162482
