13
b3lypvtz=-208087.6106258
O       0.94866952     -1.53846582      0.51735777
C       0.76111974     -0.64132633     -0.54664206
C       0.89501463      0.83397826     -0.31213113
C      -0.47252901      0.21273129     -0.51282276
C      -1.41970220      0.12336010      0.64265033
F      -2.01995885      1.37013285      0.86843346
H       1.88725898     -1.56769325      0.72797974
H       1.05855956     -1.03026629     -1.51561590
H       1.13687346      1.14679165      0.69506420
H       1.30500826      1.45644977     -1.09523918
H      -0.94965880      0.39054139     -1.46860844
H      -0.90582059     -0.16984271      1.55668997
H      -2.22493472     -0.58639091      0.44268400
