15
b3lypvtz=-180548.30130963
C      -2.64673169      0.28069523     -0.06659155
N      -1.31421809      0.58915377     -0.55564701
C      -0.20984758      0.04722238      0.06930558
C       0.98849368     -0.20281867     -0.47637159
C       2.15491986     -0.68535621      0.31885401
O       3.22550931      0.26839746      0.39489663
H      -3.36954502      0.95066524     -0.53111467
H      -2.95920637     -0.75373208     -0.25868022
H      -2.68506798      0.44944669      1.01034977
H      -1.24096206      0.64867880     -1.55982900
H      -0.36600400     -0.14901307      1.12662301
H       1.15508595     -0.01744935     -1.53360132
H       2.60948785     -1.56608654     -0.13963985
H       1.82390678     -0.97422115      1.32477302
H       2.83417933      1.11441748      0.63600141
