14
b3lypvtz=-167300.9034876
C      -2.56760626     -0.20918759      0.10541457
N      -1.13793610     -0.32887559     -0.08757761
C      -0.42309867      0.71152857     -0.04046158
C       1.04926185      0.65261889     -0.20497699
C       1.84110763     -0.20613728      0.72923595
N       1.66570987     -0.59255649     -0.66629224
H      -3.08464249     -0.62286609     -0.76275299
H      -2.90360372      0.82465600      0.25999062
H      -2.86748619     -0.80903987      0.96741720
H      -0.85430328      1.70877630      0.12352931
H       1.50777195      1.56027367     -0.58021206
H       2.84283186      0.09723876      1.00789326
H       1.28212740     -0.73833801      1.48962950
H       0.92331315     -1.28614527     -0.73197495
