14
b3lypvtz=-167312.06455936
C       2.44738742     -0.41178694     -0.09579116
C       1.27160736     -0.11661461      0.44382176
C       0.01675486      0.20335397     -0.33026083
N      -0.54765658      1.52408025     -0.03735034
C      -1.04132933     -0.87567893     -0.11243719
N      -2.26760771     -0.69198336      0.12292740
H       3.31538304     -0.62708819      0.51331842
H       2.58478301     -0.44939922     -1.17047686
H       1.16885343     -0.09026237      1.52632332
H       0.26282138      0.18118277     -1.39780590
H       0.06571459      2.25071081     -0.38459252
H      -0.62515033      1.66131247      0.96522407
H      -0.66838179     -1.89986554     -0.17937713
H      -2.46086436      0.31470188      0.13372496
