8
b3lypvtz=-185910.76207666
C       1.26092629     -0.00780131     -0.03970386
N       0.64985910     -1.19239786     -0.07038194
N      -0.66769906     -1.18425112     -0.02889164
C      -1.26092610      0.00780154      0.03970513
N      -0.64985996      1.19239782      0.07038154
N       0.66769950      1.18425142      0.02889120
H       2.34232913     -0.01450095     -0.07376017
H      -2.34232890      0.01450047      0.07375973
