14
b3lypvtz=-193022.10275395
C       2.29537145     -0.67091275     -0.00000056
C       1.35511059      0.49636258      0.00000091
C       0.02240900      0.39911857      0.00000176
O      -0.84268097      1.45692320      0.00000308
O      -0.61508033     -0.79077635      0.00000173
C      -2.04302099     -0.81756040     -0.00000128
H       1.74902711     -1.61252952     -0.00000401
H       2.94752091     -0.66504912     -0.87854402
H       2.94751806     -0.66505398      0.87854508
H       1.77671995      1.49464820      0.00000161
H      -0.32662088      2.26917842      0.00000482
H      -2.30814644     -1.87163433     -0.00000211
H      -2.45148040     -0.33587753     -0.88872324
H      -2.45148407     -0.33587799      0.88871924
