15
b3lypvtz=-185552.34520005
F       2.35033082     -0.37313521     -0.10735924
C       1.35906456      0.54847764      0.24707097
C       0.04483041      0.17391289     -0.38347794
C      -1.19898502      1.02189506      0.00129188
C      -2.03101751     -0.28613238      0.03648653
C      -0.70604146     -1.08559309      0.12382408
H       1.28966639      0.54678158      1.33859378
H       1.69543506      1.53479669     -0.08456652
H       0.16567478      0.13850973     -1.46814136
H      -1.50715942      1.80596442     -0.68899379
H      -1.09398092      1.45836157      0.99669114
H      -2.54812484     -0.45993790     -0.90721427
H      -2.74633501     -0.40367489      0.84914107
H      -0.61950041     -1.99429765     -0.46899129
H      -0.43773043     -1.31826245      1.15591995
