9
b3lypvtz=-227484.26148929
N      -1.60398405     -0.10030573      0.66450720
C      -1.19297025      0.15960747     -0.48618819
O       0.06871620     -0.02739911     -1.04568293
C       1.16586325     -0.22086272     -0.26869039
N       1.50734886      0.26152144      0.82820236
F       1.96300367     -1.06025991     -0.91229731
H      -0.90191069     -0.50027102      1.28458722
H      -1.83799480      0.56357691     -1.25776551
H       0.83192780      0.92449268      1.19332754
