14
b3lypvtz=-169703.67610596
C      -1.77643654      0.04523317     -0.48026211
C      -0.41249951     -0.60936108     -0.42505418
O      -0.24506096     -1.48099655      0.73444492
C       0.93950260     -0.76361605      1.16572103
C       0.77615488      0.21283493      0.02855816
C       1.37391087      1.31743846     -0.37685829
H      -1.97014134      0.61436105      0.42880296
H      -1.83732903      0.72048452     -1.33645354
H      -2.55203345     -0.71443469     -0.58966987
H      -0.22372961     -1.17329629     -1.34621814
H       1.83497170     -1.39189375      1.12386135
H       0.83167817     -0.35920857      2.17617877
H       1.03545984      1.85437247     -1.25406922
H       2.22545238      1.72808236      0.15101816
