14
b3lypvtz=-146380.40760115537
C       2.24921755      0.35431505     -0.46903363
C       0.96084989      0.07714060     -0.40366221
C      -0.04056757     -0.96931831     -0.26320526
C      -0.38024112      0.48640422     -0.79308848
C      -1.27362896      0.71047643      0.43540651
C      -0.93924822     -0.72026663      0.95666950
H       2.99743545     -0.37661835     -0.18832105
H       2.60058104      1.32176736     -0.80594743
H       0.02039808     -1.90302295     -0.80774112
H      -0.61338207      0.81616362     -1.79757755
H      -0.99308221      1.54910560      1.07377793
H      -2.32532331      0.80880678      0.17211368
H      -1.81772280     -1.36309617      0.96414929
H      -0.44528578     -0.79185725      1.92645982
