12
b3lypvtz=-189827.13736402
C       2.89487227     -0.24987066      0.01553986
N       1.61200214      0.42572962     -0.02283828
C       0.42353510     -0.19420688     -0.01312645
C      -0.80639461      0.38996279      0.00164540
N      -1.87831704     -0.47812525     -0.00227625
O      -2.99061681      0.04737480      0.01205450
H       3.41300073     -0.07588424      0.96171644
H       2.73611229     -1.32030847     -0.09611780
H       3.53673172      0.08729975     -0.80006273
H       1.61885119      1.43283668      0.00224658
H       0.45201729     -1.27777029     -0.02409368
H      -0.98352826      1.46242115      0.01602841
