13
b3lypvtz=-156451.35195806556
C      -2.33445870      0.05076816      0.06805377
C      -1.11799027     -0.47377027     -0.00552856
C       0.06201332      0.16880206     -0.67860269
C       1.18140086      0.47463704      0.29604430
C       2.31028951     -0.40491733      0.51925025
N       2.63369938      0.53814806     -0.23328998
H      -2.56657268      1.00994287     -0.38055875
H      -3.14351861     -0.45967207      0.57384947
H      -0.93064512     -1.43738949      0.46110126
H      -0.25313250      1.09317045     -1.17043254
H       0.45283364     -0.49295383     -1.45753164
H       0.94342027      1.21820764      1.05087825
H       2.76266090     -1.28497329      0.95676686
