11
b3lypvtz=-199893.40106502
C       0.18320813     -0.07419036     -0.00804560
N       1.20639269     -0.84622562     -0.08252810
N       2.43491501     -0.29986266      0.01614398
C      -1.13344087     -0.67345221     -0.04596543
N      -2.26751855     -0.08331035     -0.00014817
O      -2.13364654      1.31558158      0.09780943
H       0.27230071      1.00740878      0.08521839
H       2.52642402      0.68680435     -0.20729572
H       3.14792708     -0.88599924     -0.38530083
H      -1.18673756     -1.75330955     -0.12116193
H      -3.04982411      1.60655529      0.12570236
