9
b3lypvtz=-175851.84545112
C       0.07951840      0.83526789     -0.10918092
C      -1.14497901      0.20399796     -0.01233222
N      -1.25416557     -1.07481858      0.35502861
N      -0.16868285     -1.77170462      0.63768393
N       1.03452004     -1.23222551      0.56617340
C       1.16865223      0.04488597      0.20117597
H       0.17815355      1.87021867     -0.40566571
H      -2.07873939      0.70875607     -0.22785813
H       2.18572259      0.41562213      0.16571692
