16
b3lypvtz=-147180.97766812
C       1.44954713      1.37636325     -0.10551358
C       1.09163251      0.09053832     -0.06170892
C       2.10353388     -1.00758323      0.14671992
C      -0.30190955     -0.35615429     -0.23559823
C      -1.39019438      0.27416157      0.20759196
C      -2.79638646     -0.19372555      0.00445989
H       0.73104079      2.15926397     -0.30788422
H       2.47692714      1.68011250      0.04831179
H       2.09478726     -1.70580420     -0.69529082
H       1.87011922     -1.59176892      1.04080733
H       3.11239959     -0.60988945      0.24815745
H      -0.43042228     -1.30903505     -0.74561726
H      -1.26589482      1.19581570      0.76898018
H      -2.83276002     -1.13173829     -0.55038353
H      -3.30694911     -0.34108102      0.96050661
H      -3.38084189      0.54894170     -0.54696158
