12
b3lypvtz=-189845.59975324
C      -2.20829813     -0.46384755     -0.35747019
C      -1.10302211      0.25200289     -0.13245140
N       0.17305107     -0.32076444     -0.07061950
N       1.23399599      0.45484349      0.16001973
C       2.40622183     -0.04735040      0.22152751
O      -1.10681812      1.58482081      0.05578368
H      -3.16709014      0.02471751     -0.39610786
H      -2.15504945     -1.53158374     -0.50206992
H       0.27348461     -1.31872788     -0.20190946
H       2.60540881     -1.11147420      0.09281327
H       3.23130639      0.62306672      0.41047049
H      -0.18319073      1.85429677      0.19792629
