15
b3lypvtz=-157217.53401013
C       1.74688877      0.24324801      0.07564374
C       0.47253198     -0.51373662      0.41608192
C      -0.43954189     -1.07834023     -0.70707948
N      -1.66800763     -0.42128199     -0.13004181
C      -0.76039123      0.25373223      0.88885815
C      -1.39803521      1.02339296     -0.19263381
H       2.19296059      0.68031742      0.97193163
H       1.56076535      1.05230799     -0.63228923
H       2.48842693     -0.42320665     -0.37073467
H       0.70184311     -1.30835220      1.12721779
H      -0.21733606     -0.75258226     -1.72627190
H      -0.54808885     -2.16066760     -0.69509173
H      -1.06224447      0.36760192      1.92285553
H      -2.25878236      1.62493563      0.06956758
H      -0.81098903      1.41263141     -1.01801371
