11
b3lypvtz=-261566.68324302
F       2.08775361      0.00808027     -0.76002483
C       1.55824980     -0.00517464      0.53379031
C       0.21555273     -0.70641511      0.52710283
C      -0.82726501      0.02455136     -0.28662782
F      -1.99827281     -0.68247491     -0.27868023
F      -1.09035197      1.24753301      0.27737919
H       2.26734595     -0.52888200      1.17574608
H       1.46879552      1.03057854      0.86335312
H      -0.15675663     -0.79332062      1.55058633
H       0.32654862     -1.71322220      0.12160635
H      -0.54158982      0.19492029     -1.32498633
