13
b3lypvtz=-177364.26267315
C      -2.80835245     -0.44975489      0.00003214
C      -1.58688754      0.41449164      0.00024022
C      -0.33962794     -0.05654247     -0.00011895
N       0.79371672      0.75417252     -0.00001599
N       2.07181450      0.34742808     -0.00001218
N       2.23519200     -0.89408221     -0.00007152
H      -2.54673064     -1.50821850     -0.00023195
H      -3.43316632     -0.25725775     -0.87697316
H      -3.43315075     -0.25768915      0.87714037
H      -1.74800080      1.48978107      0.00068493
H      -0.10903308     -1.11126739     -0.00052417
H       0.70602773      1.75528121      0.00009693
H       3.24678657     -1.02948415     -0.00008967
