13
b3lypvtz=-179816.69971707
C      -2.29746256     -0.24810443     -0.00001243
C      -0.82646333      0.12193567     -0.00020041
O      -0.49159196      1.31280128     -0.00023100
C       0.13058786     -0.95950697     -0.00013910
C       1.47812498     -0.74037936     -0.00003102
N       2.06388694      0.46615975      0.00014151
H      -2.54078332     -0.85010908     -0.87849981
H      -2.54062939     -0.84939127      0.87901321
H      -2.90171334      0.65564193     -0.00030500
H      -0.22191691     -1.98021228     -0.00014931
H       2.15692153     -1.58610203     -0.00001286
H       1.45097890      1.27401784     -0.00017497
H       3.06129059      0.56048895     -0.00029280
