11
b3lypvtz=-176636.21646142
N       2.96760648      0.13511447     -0.05556614
C       1.85905564     -0.16486966     -0.00633247
C       0.44966131     -0.53986971      0.07323189
N      -0.40054689      0.63042199     -0.01875105
C      -1.77212122      0.52511676     -0.00216585
N      -2.50201254     -0.51414771     -0.04316986
H       0.29157181     -1.09745534      1.00575378
H       0.23080772     -1.22684301     -0.75045279
H       0.00631792      1.51843044      0.22165210
H      -2.25543549      1.50113263      0.02679927
H      -1.96964073     -1.38249086     -0.06309988
