18
b3lypvtz=-147960.57623042
C      -1.34124060     -0.62779142     -0.04498786
C      -0.09317775     -1.44701596      0.30315214
C       1.16881682     -0.84883075     -0.32908734
C       1.34124077      0.62779146      0.04498771
C       0.09317780      1.44701586     -0.30315194
C      -1.16881699      0.84883083      0.32908720
H      -2.21838593     -1.04449723      0.45625005
H      -1.53292377     -0.70536700     -1.12098603
H       0.02794764     -1.47095550      1.39188963
H      -0.22094496     -2.48408568     -0.01678168
H       1.10077670     -0.93718624     -1.41909247
H       2.04988275     -1.42033874     -0.02688329
H       2.21838611      1.04449730     -0.45625012
H       1.53292373      0.70536718      1.12098591
H       0.22094499      2.48408557      0.01678186
H      -0.02794762      1.47095518     -1.39188938
H      -2.04988304      1.42033875      0.02688329
H      -1.10077666      0.93718639      1.41909232
