10
b3lypvtz=-191490.37752977
C       2.62649476     -0.40708505     -0.00000496
C       1.46339420     -0.11702432     -0.00000230
C       0.07901438      0.30793239      0.00000123
O      -0.27232160      1.46059617      0.00000796
O      -0.74999683     -0.74858601     -0.00000428
C      -2.15459982     -0.43039846     -0.00000123
H       3.65627646     -0.66724568     -0.00000693
H      -2.66633098     -1.38748776     -0.00001395
H      -2.41375984      0.14494166      0.88700512
H      -2.41375873      0.14496506     -0.88699266
