13
b3lypvtz=-177397.98771174
C       2.73536123      0.41235713      0.06130391
N       1.58296225     -0.45256365      0.19522478
C       0.43644404      0.04910255      0.02249618
N      -0.70380114     -0.72142263      0.13555158
C      -2.01915274     -0.31157873     -0.02635461
N      -2.49971759      0.82775752     -0.30786916
H       3.30623353      0.40682835      0.99241166
H       3.39529915      0.02313694     -0.71711392
H       2.48214050      1.45242012     -0.18526664
H       0.25860364      1.09930358     -0.22251860
H      -0.53897668     -1.69058288      0.36125829
H      -2.71059797     -1.13955249      0.12308850
H      -1.79055320      1.54742320     -0.43200097
