9
b3lypvtz=-255798.86681141
N      -1.64063636     -1.01132696     -0.00002328
C      -0.78274575     -0.08665239     -0.00000308
O      -0.94981455      1.25353598      0.00002655
C       0.68763919     -0.46159477     -0.00001116
F       1.30138321      0.05858576     -1.09885450
F       1.30138006      0.05852838      1.09886127
H      -2.60274905     -0.67282676     -0.00001530
H      -1.89092671      1.46884412      0.00003165
H       0.80465597     -1.54336436     -0.00003917
