15
b3lypvtz=-178130.87557321
C      -0.88355536      1.48794323      0.29038586
C      -0.67802241      0.07438125     -0.26079100
C      -1.96414840     -0.74625005     -0.24928434
N       0.34317555     -0.65275290      0.49566051
N       1.65490999     -0.55238938      0.31601046
N       2.01398383      0.34019292     -0.49155004
H      -1.26473830      1.45135889      1.31297070
H      -1.60242235      2.03321135     -0.32431912
H       0.05618259      2.03609019      0.28670369
H      -0.30043633      0.15713415     -1.28299439
H      -2.74390653     -0.23387721     -0.81264504
H      -2.33296973     -0.88399892      0.77079625
H      -1.81261749     -1.72944633     -0.69718926
H       0.08694830     -1.43650260      1.06983983
H       3.03270265      0.28189540     -0.51768509
