12
b3lypvtz=-189815.81507254
N       2.75247829     -0.35232091     -0.39485428
C       1.73057501      0.48330267      0.24456588
C       0.40881896     -0.21261517      0.25277812
C      -0.77073743      0.34764983     -0.02449983
N      -1.92023427     -0.47409944      0.08262875
O      -2.96445093      0.09457422     -0.17219462
H       3.61885031      0.16423916     -0.48462904
H       2.95663201     -1.16510391      0.17565224
H       1.65148013      1.41960939     -0.30962970
H       1.96819842      0.75538074      1.28663291
H       0.39859536     -1.26237929      0.53218181
H      -0.92125285      1.38031171     -0.32724025
