13
b3lypvtz=-177396.67853245
N      -2.49453106     -0.23576343     -0.01644127
C      -1.31129768     -0.71865208      0.00759824
C      -0.04379105     -0.00942742      0.00983365
N       0.02486609      1.42383971      0.03189226
C       1.12211645     -0.69741639     -0.00036124
N       2.35610843     -0.12104727     -0.05095031
H      -2.46093862      0.78612237     -0.05752251
H      -1.22674608     -1.80809761      0.04181046
H      -0.61090944      1.81560611      0.71750303
H      -0.21530961      1.83010982     -0.86631972
H       1.10471645     -1.77996250     -0.01997492
H       3.14949353     -0.65507969      0.25562399
H       2.37507359      0.86921339      0.14379335
