12
b3lypvtz=-189872.38987715
N       2.40573627      0.62400860      0.00420488
C       1.34063907     -0.20228497      0.24559376
N       0.13074236      0.17791173      0.12865128
C      -0.90706549     -0.73181396      0.31482793
C      -2.17224770     -0.31255176      0.18315522
O      -2.51205715      0.96314800     -0.12838310
H       2.20223546      1.60865797     -0.06303142
H       3.28896821      0.38764434      0.42120983
H       1.62162307     -1.22767712      0.50572276
H      -0.69901811     -1.76949955      0.56251121
H      -3.02475502     -0.96174397      0.31595051
H      -1.67480097      1.44410069     -0.22561287
