18
b3lypvtz=-147939.43113153
C      -2.38443197     -0.00000007     -0.11715926
C      -0.89623312     -0.00000010     -0.41693074
C      -0.00330720      1.08380657      0.24700520
C       1.07337449     -0.00000018      0.53984421
C       2.25088664     -0.00000011     -0.42558713
C      -0.00330722     -1.08380682      0.24700512
H      -2.87503380      0.88196699     -0.53631750
H      -2.87503383     -0.88196715     -0.53631742
H      -2.56521862      0.00000002      0.96080102
H      -0.74427770     -0.00000008     -1.49847878
H       0.30394939      1.92785946     -0.37251181
H      -0.45578394      1.47355254      1.16076363
H       1.44742186     -0.00000025      1.56477933
H       2.87819296     -0.88269412     -0.28146971
H       2.87819299      0.88269385     -0.28146953
H       1.91448876      0.00000003     -1.46542814
H      -0.45578399     -1.47355288      1.16076350
H       0.30394929     -1.92785969     -0.37251197
