12
b3lypvtz=-215553.14167749
O      -1.17360104      0.07082947      1.11290364
C      -0.90218894     -0.34478522     -0.20798125
O      -1.52117864      0.49231513     -1.15293464
C       0.59949357     -0.36242686     -0.42457488
C       1.55864541      0.03478188      0.60453772
O       1.20756202      0.93382170     -0.45920757
H      -2.11830582      0.25266416      1.16250132
H      -1.31434760     -1.34208918     -0.39171926
H      -1.01992807      1.31980442     -1.16189290
H       0.92284081     -1.02408107     -1.22275789
H       1.18816499      0.31746102      1.58085985
H       2.57274332     -0.34829546      0.56026586
