9
b3lypvtz=-154950.02665625
C      -2.77992180      0.51854608      0.00002222
C      -1.87940476     -0.46791552      0.00009670
C      -0.48068369     -0.26120412      0.00005067
C       0.72014303     -0.12037536      0.00001204
C       2.07327860      0.04906555     -0.00003032
N       3.22178754      0.19209765     -0.00006670
H      -3.83803309      0.29851893      0.00007277
H      -2.48383107      1.55831933     -0.00008450
H      -2.20539376     -1.50278153      0.00020511
