16
b3lypvtz=-168076.22539713
C      -2.90551854      0.51181478      0.02030352
N      -1.82842949     -0.45358237      0.16448435
C      -0.56983734     -0.13431293     -0.32073549
C       0.60975081     -0.54181541      0.16143052
C       1.92651951     -0.22395505     -0.48608430
N       2.85498937      0.59859355      0.31161209
H      -2.77630672      1.41540705      0.63097866
H      -2.97701024      0.82023843     -1.02373171
H      -3.85196947      0.04484015      0.29166099
H      -1.81484048     -0.91823990      1.06034695
H      -0.59868138      0.47160096     -1.22272015
H       0.63912770     -1.13894790      1.07060973
H       1.74755620      0.29421620     -1.43209583
H       2.46385125     -1.14229862     -0.74142254
H       3.15203705      0.08351812      1.13339192
H       2.36285877      1.41540794      0.65833729
