14
b3lypvtz=-195612.87268634
F       2.27226403      0.31518297     -0.02554468
C       1.20812666     -0.54902886     -0.30300597
C       0.02827150     -0.21150034      0.57495502
C      -1.27322468     -0.93741581      0.14648156
N      -1.67661461      0.28336826     -0.58888227
C      -0.70448419      1.09477961      0.18378317
H       0.95783537     -0.43696418     -1.35997685
H       1.55917406     -1.56790801     -0.12117150
H       0.30814922     -0.30595975      1.62267714
H      -1.16976652     -1.82898920     -0.47771202
H      -1.90478197     -1.18491207      1.00630009
H      -2.64783821      0.55210692     -0.49827363
H      -1.12960150      1.60131030      1.05662560
H      -0.14309217      1.82059416     -0.40692267
