20
b3lypvtz=-148713.74010271
C       1.80575393     -0.74364936     -0.54823607
C       0.70932556      0.31362583     -0.37322192
C       1.00361303      1.19291021      0.84854990
C      -0.70932551     -0.31362591     -0.37322174
C      -1.80575388      0.74364927     -0.54823589
C      -1.00361285     -1.19291007      0.84855027
H       2.78343388     -0.27250754     -0.66795911
H       1.86954996     -1.40620575      0.31744613
H       1.62450864     -1.36254703     -1.42971481
H       0.74774926      0.96208794     -1.25591234
H       1.04189108      0.60303569      1.76668043
H       1.97235325      1.68411306      0.73844711
H       0.25529646      1.97470086      0.98378776
H      -0.74774935     -0.96208816     -1.25591205
H      -2.78343383      0.27250742     -0.66795881
H      -1.86954985      1.40620574      0.31744626
H      -1.62450866      1.36254686     -1.42971470
H      -1.04189078     -0.60303539      1.76668070
H      -0.25529627     -1.97470071      0.98378819
H      -1.97235308     -1.68411295      0.73844771
