13
b3lypvtz=-179794.57136104
C      -1.97298164     -0.52990573      0.06160116
O      -1.03670179      0.45097023     -0.36463908
C       0.18508247      0.44002692      0.34100943
C       0.98057526      1.67410418     -0.06768202
C       0.94899892     -0.80108433      0.07086720
N       1.53248492     -1.76962857     -0.14147038
H      -2.86950982     -0.38260298     -0.53569734
H      -2.22094314     -0.40431191      1.12164711
H      -1.59594520     -1.54404870     -0.09985937
H      -0.00487150      0.46291393      1.42306189
H       0.40470991      2.56425310      0.18023747
H       1.16682993      1.66039890     -1.14024161
H       1.93457969      1.70656196      0.45699053
