15
b3lypvtz=-178146.28562457
C      -2.59010058     -0.16393226      0.23444845
N      -1.50599492      0.34686606     -0.15491687
C      -0.37427383     -0.52926608     -0.40312377
C       0.87739080     -0.02114001      0.32277863
N       1.97123099     -0.94799999      0.07237592
N       1.16653723      1.33494715     -0.14831207
H      -3.44590987      0.47875967      0.42994172
H      -2.72740668     -1.24145044      0.38897229
H      -0.56240386     -1.56718580     -0.10618867
H      -0.16516470     -0.50478682     -1.47713576
H       0.67556339     -0.06536663      1.40189075
H       2.73377256     -0.78113534      0.71774692
H       2.33608474     -0.77937659     -0.86011394
H       0.31498708      1.88724475     -0.13658728
H       1.83884565      1.79040233      0.45796568
