11
b3lypvtz=-176645.92936681
C       2.03050548     -0.05245321      0.00000699
N       0.58414625      0.00895155     -0.00001121
C      -0.23035789      1.08180230     -0.00000763
N      -1.49349146      0.70365077     -0.00003585
C      -1.39457182     -0.65074482      0.00010963
N      -0.15957686     -1.12101377      0.00005266
H       2.42438473      0.96151123     -0.00001394
H       2.38190361     -0.57760835      0.88691860
H       2.38193405     -0.57766488     -0.88685843
H       0.13469037      2.09597161      0.00003043
H      -2.24927348     -1.30674642     -0.00003526
