9
b3lypvtz=-227517.03469013932
C      -0.46779121     -0.24087686      0.33350628
N       0.46505835      0.64801829      0.41700960
C       1.74320812      0.15412039      0.27134881
O       2.13750024     -0.95883500      0.08072333
F       2.62501706      1.16940008      0.37653641
N      -1.75616758      0.08596900      0.45451195
H      -0.25908056     -1.29773985      0.16120649
H      -2.00983816      1.04744354      0.61484160
H      -2.47790625     -0.60749958      0.38890307
