16
b3lypvtz=-170491.64515518
C       2.57282189     -0.23434772      0.48576705
C       1.49332179      0.20170540     -0.51517274
C       0.19516227     -0.53379806     -0.34308644
C      -0.99450950     -0.00953582     -0.03520965
C      -2.25477793     -0.79461177      0.13451149
O      -1.23244780      1.32728352      0.16654830
H       2.76652774     -1.30541487      0.40307325
H       3.51346737      0.29002109      0.30673804
H       2.25950960     -0.03470340      1.51139733
H       1.87050154      0.04025961     -1.53083062
H       1.35549300      1.28560047     -0.43293783
H       0.23315707     -1.60865598     -0.47132365
H      -2.66363984     -0.64560060      1.13659439
H      -2.07728928     -1.85662357     -0.01985831
H      -3.01281783     -0.45544675     -0.57543418
H      -0.41361009      1.82027743      0.04747458
