13
b3lypvtz=-156442.17890535
N       2.49109151      0.55813512     -0.18351187
C       1.59453082     -0.16182449      0.34783140
C       0.36880961     -0.75119746     -0.29723700
C      -0.91477192     -0.35053422      0.42827568
C      -2.20300349     -0.11929189     -0.30873393
C      -1.62008746      0.94364027      0.13028284
H       2.29395318      0.70407347     -1.17707135
H       1.70893089     -0.37991678      1.41406755
H       0.31980574     -0.44469751     -1.34524534
H       0.45921508     -1.84429167     -0.27701008
H      -0.96637452     -0.74067272      1.44556286
H      -3.01970290     -0.57884456     -0.83608973
H      -1.59777554      2.01337844      0.23469797
