12
b3lypvtz=-189871.54671777
N       2.45385398     -0.16180549     -0.22676360
C       1.13180752     -0.22403364     -0.57001030
N       0.24305516      0.49810420     -0.02531555
C      -1.13201436      0.28567161     -0.40866383
C      -2.00374667     -0.00760757      0.79946971
O      -3.05687899     -0.58685793      0.74294334
H       3.13344773     -0.51171701     -0.87824657
H       2.73789364      0.62151574      0.33955996
H       0.91081212     -0.98182330     -1.33124527
H      -1.53481239      1.20942523     -0.84697712
H      -1.28647506     -0.51312123     -1.14699951
H      -1.59684269      0.37204938      1.75824875
