15
b3lypvtz=-180554.73126743
C       2.73318854     -0.40706441     -0.14827515
C       1.31689506     -0.33377468      0.40219429
N       0.54189432      0.70284666     -0.27705272
C      -0.81959080      0.84190303      0.20620951
C      -1.73280606     -0.21159002     -0.39508579
O      -2.72310581     -0.63763034      0.13768497
H       3.26651446      0.53286279      0.01446191
H       3.29979965     -1.19699869      0.34578761
H       2.72024640     -0.60594835     -1.22012371
H       0.81176744     -1.29091976      0.24359550
H       1.34584321     -0.17882636      1.49287328
H       1.02903438      1.58768152     -0.22616829
H      -0.93051330      0.81205129      1.29992607
H      -1.21641536      1.80560687     -0.13180592
H      -1.41701613     -0.55239356     -1.40381657
