12
b3lypvtz=-194869.49823167
C       1.33989506      1.38707467     -0.04899243
C       0.96664875      0.10659730     -0.08062961
C       1.90026844     -1.05003432      0.12442014
N      -0.34943244     -0.28719807     -0.40641580
C      -1.30447689      0.11893198      0.27894737
F      -2.56091315     -0.20282494     -0.04940066
H       0.64257223      2.18533116     -0.26177055
H       2.36865704      1.65707078      0.14074029
H       1.57307785     -1.66684416      0.96499476
H       1.90096688     -1.69160797     -0.75894185
H       2.91486306     -0.70699841      0.31667048
H      -1.27363182      0.73852697      1.17392685
