12
b3lypvtz=-192234.60742418
C       2.39116989      0.24651835      0.34881148
C       1.28471211     -0.07175070      0.01244201
C      -0.04774450     -0.47598482     -0.43705990
C      -1.11861416     -0.35559349      0.65221813
O      -1.30168928      0.97496299      1.08090198
O      -0.51159495      0.34017669     -1.52284187
H       3.36318622      0.53540512      0.66258825
H      -0.00411968     -1.52611597     -0.75368048
H      -0.82372893     -0.94144532      1.52205754
H      -2.04541539     -0.77809586      0.24525016
H      -1.41885925      1.51052068      0.28743379
H       0.23269794      0.54140234     -2.09812111
