14
b3lypvtz=-167324.21344398
N       1.77552218      0.02245186     -0.57853266
C       0.77029193      0.01160223      0.49148409
C      -0.18062417      1.21374754      0.31800310
C      -1.38931327      0.56775666     -0.31254259
N      -1.41198043     -0.69844699     -0.32892801
C      -0.18028468     -1.19617782      0.29930254
H       2.34721629     -0.81365101     -0.53419050
H       2.40474852      0.80972133     -0.46701025
H       1.21267994      0.00293965      1.49439578
H      -0.45176724      1.67574660      1.27249974
H       0.25091353      1.99603205     -0.31000250
H      -2.21837869      1.14148897     -0.71923845
H       0.26538333     -1.96674319     -0.33324372
H      -0.44532125     -1.66886888      1.24909844
