11
b3lypvtz=-202311.93620053
C      -1.82232660     -0.41938093      0.77386257
C      -0.86356410      0.15698030      0.04151072
O      -1.12707968      1.20113543     -0.78522670
C       0.52100193     -0.30328787      0.08845097
N       1.37823674      0.29552070     -0.63905333
O       2.65807113     -0.23610809     -0.50518883
H      -2.84310507     -0.07081338      0.73070236
H      -1.58302749     -1.24751647      1.42226859
H      -0.29375294      1.45371656     -1.20937931
H       0.78915917     -1.13521063      0.73320198
H       3.18648691      0.30496440     -1.10134902
