17
b3lypvtz=-158001.63187183
C       2.29626336     -0.40964150      0.16698203
C       1.19531521      0.54064900     -0.30302000
C      -0.16424532     -0.12810831     -0.39399335
C      -1.42105363      0.73752295     -0.65634562
C      -2.10662446     -0.10063646      0.44424412
N      -0.76604604     -0.53700937      0.90555070
H       2.41063333     -1.25406374     -0.51731568
H       2.06556956     -0.80676663      1.15724070
H       3.26022622      0.09743657      0.23031437
H       1.11753059      1.38477340      0.38719830
H       1.44977503      0.95128065     -1.28595093
H      -0.11572892     -0.95962245     -1.11179984
H      -1.27106312      1.77529653     -0.36060922
H      -1.85208447      0.70383203     -1.65428851
H      -2.69262506      0.43001896      1.19628827
H      -2.72037870     -0.90585298      0.02529382
H      -0.68546361     -1.51910865      1.13796151
