13
b3lypvtz=-179759.5192340325
C      -1.51604739      0.21583214     -0.18792270
C      -0.60337340     -0.91524674     -0.73958287
N       0.53926731     -0.28235220     -0.06917268
C      -0.26829279      0.83291469      0.49457723
C       1.79857364     -0.63740841     -0.03018985
O       2.46758115      0.27862888      0.72405374
H      -1.97016770      0.84228251     -0.95125682
H      -2.28722031     -0.12161941      0.49970320
H      -0.49805957     -0.95032342     -1.82374967
H      -0.81683043     -1.91717954     -0.36784513
H      -0.27453310      0.84550597      1.58393141
H       0.04350320      1.81082003      0.12936066
H       3.38559940     -0.00185451      0.73809348
