12
b3lypvtz=-189878.06002766
C      -1.33481028      1.30335587     -0.00002880
C      -0.84103589     -0.11647674     -0.00003137
O      -1.85304809     -1.00286920      0.00002781
N       0.35455235     -0.56300026     -0.00007162
C       1.44216057      0.31110552     -0.00005036
N       2.65535640     -0.05594748      0.00005672
H      -2.42089900      1.31915690      0.00009691
H      -0.97184784      1.83430470      0.88005826
H      -0.97205743      1.83427580     -0.88022950
H      -1.44737432     -1.88408880      0.00001146
H       1.24073418      1.38473074      0.00020160
H       2.69924434     -1.07767405     -0.00004011
