17
b3lypvtz=-158004.83728435
C      -2.09246956      0.14178499     -0.38857362
C      -0.78880522     -0.59183885     -0.20663025
N      -0.18498236     -0.59013065      1.14084189
C       0.53769318      0.04616756      0.02112954
C       0.69103126      1.54756028      0.12745768
C       1.76336743     -0.65960417     -0.52033227
H      -2.12113040      1.06029828      0.19423220
H      -2.92629395     -0.48270730     -0.06024651
H      -2.25621268      0.39252614     -1.43935101
H      -0.74446224     -1.53444060     -0.74691594
H       0.21640342     -1.49758711      1.35468307
H      -0.17741597      2.00738835      0.59272966
H       1.56227350      1.79318306      0.73956113
H       0.83801668      1.99621882     -0.85807826
H       2.02980197     -0.28314671     -1.51079817
H       1.59917352     -1.73559866     -0.60425738
H       2.62347444     -0.49746041      0.13505625
