12
b3lypvtz=-187483.30422561
C       1.01524119     -0.00506425     -0.51853614
N       0.25687772      0.12905242      0.49989199
C      -1.13182681      0.22764429      0.31214256
N      -1.88368460      1.03196655      0.95305882
N      -1.67927299     -0.61612253     -0.65741026
N       2.35871089     -0.15936145     -0.40444646
H       0.64495510     -0.02135301     -1.54621341
H      -1.31310823      1.61556953      1.55882427
H      -2.68849747     -0.61187442     -0.63115506
H      -1.29511788     -1.54897705     -0.67094707
H       2.77145905     -0.02453981      0.50422581
H       2.94426402     -0.01694028     -1.20695502
