16
b3lypvtz=-170490.14527577
C       2.20022087     -0.82432481     -0.08291784
C       1.33946104      0.40177728     -0.14406586
C       0.03959220      0.50095563      0.14547828
O      -0.64948836      1.68964030      0.03995323
C      -0.88479140     -0.58574132      0.60674090
C      -1.94964593     -0.95248410     -0.43709884
H       2.62425355     -1.05999226     -1.06354192
H       3.04539258     -0.68183581      0.59689479
H       1.65374037     -1.70365098      0.25395117
H       1.84501705      1.31063613     -0.46547960
H      -0.05463271      2.37065824     -0.29246448
H      -0.30991784     -1.46915605      0.87803619
H      -1.38035996     -0.23650535      1.51722408
H      -1.48744490     -1.34669020     -1.34356523
H      -2.62679995     -1.71239672     -0.04434226
H      -2.54038762     -0.07939599     -0.71163562
