14
b3lypvtz=-169705.2893387
C       2.95557955     -0.38355914     -0.11949429
C       1.78435292      0.56073925     -0.19215262
C       0.58453050      0.30352341      0.24508261
C      -0.61659120      0.03237789      0.67545802
C      -1.69842048     -0.59264038     -0.16852843
O      -2.86711204      0.22242514     -0.23864191
H       3.77259640      0.05808848      0.45646885
H       3.34497828     -0.59524956     -1.11839702
H       2.67605556     -1.32628843      0.34767433
H       1.96845105      1.53327233     -0.64267213
H      -0.89064139      0.27491224      1.69912836
H      -1.30801184     -0.82141548     -1.16490607
H      -2.03319617     -1.52780995      0.28431532
H      -2.60929814      1.07722819     -0.59876702
