15
b3lypvtz=-178152.75815261
N       2.50802081     -0.14786423     -0.51162438
C       1.49347640      0.03801548      0.54662970
C       0.21111561     -0.64659672      0.19807591
C      -0.97797667     -0.04289486      0.02177271
N      -2.18678253     -0.75228919     -0.09409978
N      -1.17967739      1.33977772      0.04801396
H       2.16950230      0.24158159     -1.38440864
H       3.36032203      0.34887585     -0.27445848
H       1.29787555      1.09144555      0.78622257
H       1.91373529     -0.40523102      1.45610022
H       0.24942942     -1.72324000      0.08610117
H      -2.71795867     -0.51006848     -0.92162649
H      -2.05480562     -1.75146531     -0.04175412
H      -0.49176775      1.90329921     -0.42038450
H      -2.12643577      1.63948039     -0.11141783
