10
b3lypvtz=-168174.02737966
C       2.12589395      0.87245338     -1.51707368
C       1.24924827      0.10471923     -1.21743682
C       0.29642023     -0.89355179     -0.92297352
C      -0.88445718     -0.73883837     -0.29454753
C      -1.42508783      0.53013853      0.22018351
O      -0.87871787      1.60706726      0.14700244
H       2.87094290      1.58877637     -1.75969234
H       0.56771288     -1.89273788     -1.24987289
H      -1.50479330     -1.61439781     -0.14584781
H      -2.41706205      0.43637108      0.70565864
