13
b3lypvtz=-177376.23899894
C      -2.53777141      0.43876727      0.13834644
C      -1.70682381     -0.58309385     -0.05552639
N      -0.31210571     -0.55037622     -0.03526274
N       0.29775607      0.69744344     -0.13711393
C       1.57213367      0.67586324     -0.06157580
N       2.36249446     -0.45246024      0.08013715
H      -3.60285669      0.26430862      0.14773944
H      -2.17586472      1.44397019      0.28935114
H      -2.08326147     -1.58877540     -0.20303366
H       0.12442110     -1.27158940     -0.59913246
H       2.09067699      1.62092858     -0.16667682
H       3.31948823     -0.27735309      0.33988150
H       1.93959729     -1.19364213      0.62329712
