13
b3lypvtz=-203092.08677036
N      -0.28829600      0.55216473     -1.50541041
C      -0.17893450      0.06016369     -0.15739418
C      -1.31561290     -0.16371620      0.50472208
O      -2.54244518      0.04885658     -0.02953319
C       1.18824242     -0.16797449      0.41306515
O       1.09280641     -0.65154193      1.74629421
H       0.15468401      1.45742264     -1.62112063
H       0.13295974     -0.07796528     -2.17963533
H      -1.33820340     -0.53200298      1.51822194
H      -2.37457946      0.37416267     -0.93089180
H       1.73216198     -0.88349382     -0.22403433
H       1.75719671      0.77480665      0.37923601
H       1.98012015     -0.79098226      2.08638049
