12
b3lypvtz=-215564.77658792
C      -1.69743722     -0.63274600     -0.58806389
O      -1.23784235     -0.06767328      0.63864440
C       0.04947123      0.50960820      0.59460691
O       0.21208278      1.45599740     -0.40862651
C       1.09356712     -0.60344829      0.45118921
O       1.89478655     -0.62194509     -0.44817135
H      -2.68680712     -1.03270940     -0.38107630
H      -1.76686330      0.12484145     -1.36904076
H      -1.05273811     -1.44751465     -0.93511050
H       0.16131293      0.98076888      1.57671181
H       0.87901216      1.10960243     -1.02248934
H       1.04016234     -1.40645765      1.20754833
