14
b3lypvtz=-190625.88714523
C      -1.32677373     -0.53670481      0.03061366
C      -1.16831828      0.97956014      0.06040563
O       0.22612464      1.16847650      0.26960715
C       0.91999654      0.11011689     -0.41089294
N      -0.08466311     -0.93192492     -0.63661075
N       2.05194760     -0.36785628      0.32620837
H      -1.41749662     -0.93027273      1.05059812
H      -2.20415692     -0.85137296     -0.53729727
H      -1.48197560      1.42577272     -0.89095935
H      -1.70836822      1.46166289      0.87362960
H       1.29113588      0.49810586     -1.36636512
H       0.27297485     -1.82971506     -0.34578457
H       1.80740059     -0.48303132      1.30430049
H       2.82217239      0.28718305      0.27254698
