10
b3lypvtz=-191505.17303599
C      -2.20830566     -0.58004667     -0.00000392
C      -0.88441883     -0.71988980     -0.00000326
C       0.01060610      0.45501334      0.00000340
O      -0.34990445      1.61438761      0.00000878
C       1.52077376      0.18491594      0.00000445
O       2.00455021     -0.91535928     -0.00000192
H      -2.86993456     -1.43555298     -0.00000854
H      -2.65693201      0.40561255      0.00000030
H      -0.40774135     -1.69079211     -0.00000737
H       2.12329078      1.11284141      0.00001007
