14
b3lypvtz=-169722.2359474
C       1.52637671     -0.06597833      0.27922659
C       0.04751511     -0.17049150     -0.00454120
C      -0.48651007     -1.53563673     -0.21080740
O       0.16840232     -2.54799705     -0.16691136
C      -0.92321926      0.80448412      0.64982375
C      -0.65138754      0.91877976     -0.80835393
H       1.82286475      0.97444153      0.41586067
H       2.10892894     -0.48529720     -0.54183498
H       1.78788987     -0.61998020      1.18143645
H      -1.57896739     -1.57639764     -0.41863284
H      -1.88765481      0.42832871      0.96421499
H      -0.48413667      1.52997592      1.32001579
H      -1.42832631      0.62160618     -1.50012632
H      -0.02187564      1.72426244     -1.15937021
