12
b3lypvtz=-168940.20579844
C       2.44540970      0.32038913      0.49942802
C       1.38423536     -0.23834172      0.49733192
C       0.08170159     -0.89506450      0.47125090
C      -0.85757551     -0.32979168     -0.60973464
C      -1.24447274      1.11162623     -0.37061002
O      -1.41955999      1.92220265     -1.24079626
H       3.38587477      0.81235309      0.50436215
H       0.21805235     -1.96579019      0.30402237
H      -0.39015112     -0.79845079      1.45397856
H      -1.78768629     -0.91005425     -0.60003953
H      -0.42578608     -0.41649393     -1.60606544
H      -1.39024203      1.38741596      0.69677195
