12
b3lypvtz=-192258.46853468
C       1.82971706     -0.57506737      0.29358840
C       0.66025794      0.00090510     -0.47417088
O       0.32012617      1.36877467     -0.10057250
C      -1.04275844      1.04025963      0.25383270
C      -0.75337690     -0.42540910     -0.06233819
O      -1.34877674     -1.45630446      0.00574661
H       1.97447656     -1.62087646      0.01795597
H       1.65911433     -0.51656015      1.36872697
H       2.74136082     -0.02583968      0.05651510
H       0.82035327     -0.07555380     -1.55553655
H      -1.78085793      1.51417266     -0.39980882
H      -1.27852715      1.26297595      1.29779719
