11
b3lypvtz=-176609.07699042637
C      -1.96715115     -0.40738492     -0.15375405
C      -0.66778725      0.30998508      0.00101464
N       0.45055122     -0.29471946     -0.10651903
C       1.62613697      0.39637886      0.04201338
N       2.74573486     -0.26590229     -0.07607552
N       3.72518629     -0.82558575     -0.17540987
H      -2.55673816      0.02441684     -0.96818334
H      -2.57343280     -0.31625366      0.75262411
H      -1.79459950     -1.46184149     -0.36084368
H      -0.71596721      1.38566639      0.21268674
H       1.72806673      1.45524037      0.25140053
