14
b3lypvtz=-167324.12334617
C      -0.48578439      0.32932082     -0.79935984
C      -1.67595156     -0.10513087      0.08131403
N      -1.11127507     -0.49900858      1.38633481
C       0.14411891     -0.61313741      1.26507769
C       0.73312774     -0.32594294     -0.10267279
N       1.98773899      0.41453583     -0.02131660
H      -0.36711523      1.41505776     -0.76902558
H      -0.59224544      0.03625256     -1.84324636
H      -2.20098470     -0.97073637     -0.33271752
H      -2.42366753      0.67508855      0.22735928
H       0.77084096     -0.91860115      2.09896638
H       0.97083700     -1.28704868     -0.57339467
H       1.82683811      1.35763724      0.31449310
H       2.42352223      0.49171324     -0.93181192
