13
b3lypvtz=-179796.82023576
C       2.54601607      0.00196067     -0.00001216
C       1.37446725     -0.62599023      0.00000755
C       0.08135374      0.11775898      0.00000792
O       0.02417514      1.32996116      0.00000224
C      -1.18196159     -0.74053994     -0.00000691
N      -2.44656783     -0.03330749     -0.00001409
H       3.48391633     -0.53692270     -0.00001639
H       2.58162868      1.08420426     -0.00002450
H       1.32499052     -1.70948231      0.00001835
H      -1.13169719     -1.40659693      0.86915087
H      -1.13167847     -1.40658018     -0.86917701
H      -2.48916548      0.58264056     -0.80455779
H      -2.48919817      0.58260115      0.80455792
