11
b3lypvtz=-176614.80725633967
C      -0.69390599     -1.08402221     -0.11059899
C      -0.25717578      0.34069398      0.08810366
N      -1.16110276      1.24710447      0.34778949
N      -1.93253417      2.04365341      0.57375671
C       1.12078558      0.78892196      0.01053838
N       2.15196718      0.07690134     -0.22901175
H      -0.42897133     -1.43787968     -1.11005223
H      -0.21316477     -1.74279416      0.61677126
H      -1.77133946     -1.18400185      0.00637907
H       1.27319481      1.85632292      0.17898192
H       1.91224672     -0.90490021     -0.37265751
