14
b3lypvtz=-167330.73403925
C       2.44032852     -0.86307549      0.00170730
C       1.88125413      0.52419788     -0.00309474
C       0.58248050      0.84256273     -0.00266383
N      -0.44365218     -0.09686957      0.00706149
C      -1.64655409      0.32455665      0.00895256
N      -2.72136803     -0.51456031     -0.04593689
H       3.08006220     -1.03251809     -0.86972115
H       3.06564281     -1.03267227      0.88369845
H       1.64466943     -1.60484083     -0.00463393
H       2.59022309      1.34444556     -0.00764637
H       0.29772094      1.89745174     -0.00891907
H      -1.91123532      1.38837383      0.01600518
H      -3.61845201     -0.17062611      0.24609286
H      -2.54106297     -1.49404974      0.10509813
