10
b3lypvtz=-209941.10843863
C      -0.28414918      0.71452246      0.20161454
N      -0.63360317     -0.40116568     -0.26542270
N      -1.91869898     -0.52328603     -0.76702029
O       0.98255705      0.96696359      0.66018179
N       1.59379694     -0.17562994      1.25217000
N       2.78713203      0.04421033      1.35778959
H      -0.89897025      1.61241022      0.25634441
H      -2.18561217     -1.49573744     -0.73342793
H      -2.60901496      0.04319287     -0.28204790
H       3.16656269     -0.78548038      1.82621069
