12
b3lypvtz=-187462.54788766
N      -2.89993926     -0.13678294      0.06496690
C      -1.62976572      0.38256823     -0.00036491
N      -0.59622404     -0.36496988     -0.01531090
N       0.59622489      0.36497002      0.01530507
C       1.62976659     -0.38256806      0.00035906
N       2.89994015      0.13678315     -0.06497215
H      -3.63712068      0.42229534     -0.32969755
H      -2.97110346     -1.12399888     -0.12886657
H      -1.55758320      1.46956739      0.01027090
H       1.55758415     -1.46956723     -0.01027606
H       2.97110424      1.12399905      0.12886157
H       3.63712135     -0.42229519      0.32969265
