15
b3lypvtz=-157267.91327566
C      -0.77059318     -0.34614035      1.41931325
C      -0.27774067      0.00016892     -0.00006486
C      -0.77030991      1.40261865     -0.40999506
C      -0.77050888     -1.05621771     -1.00941887
C       1.19447576     -0.00006529     -0.00006940
N       2.34554794     -0.00035606     -0.00025991
H      -0.41897218     -1.33055142      1.72738306
H      -1.86148413     -0.34947195      1.43350172
H      -0.41887176      0.38537388      2.14651257
H      -0.41773265      1.66665735     -1.40676611
H      -1.86119322      1.41659852     -0.41502280
H      -0.41932664      2.16167865      0.28871639
H      -0.41812623     -0.83207137     -2.01597352
H      -0.41954063     -2.05166503     -0.73830753
H      -1.86136163     -1.06620179     -1.02017492
