14
b3lypvtz=-146370.63576634906
C      -0.99887103     -0.18306602     -0.66525402
C      -0.40130651      1.17255830     -0.15064057
C       0.76626622      0.77820684      0.77218961
C       1.90500338     -0.03911989      0.21970211
C       0.85801616     -0.70421592      0.60280685
C      -0.38787575     -1.36926695      0.17811964
H      -0.72633794     -0.34104387     -1.70816538
H      -2.08697173     -0.18994599     -0.60575274
H      -0.10772585      1.80370154     -0.99179707
H      -1.14221145      1.73187376      0.42357338
H       0.83411850      1.25118110      1.74666633
H       2.76555156     -0.03096659     -0.42988560
H      -1.02567088     -1.61058891      1.02963985
H      -0.25198467     -2.26930739     -0.42120239
