10
b3lypvtz=-186642.4598476
C       0.53214365      1.67101523     -0.01021782
C       0.00930429      0.44633011      0.06490940
N       0.77670063     -0.71933044      0.35671880
N       1.83269256     -0.81455382     -0.28382610
N      -1.40127525      0.31429382     -0.01074405
N      -1.80343326     -0.86127417     -0.08044699
H       1.59958334      1.82149364      0.04056393
H      -0.12312571      2.52309869     -0.11330955
H       2.31575122     -1.65356401      0.07078817
H      -2.82954146     -0.81044306     -0.14019979
