11
b3lypvtz=-202361.34903872
C       2.03337771      0.43823204      0.04390969
C       0.94178215     -0.31682096     -0.02726666
N      -0.36332817      0.17613124     -0.04319466
C      -1.46404299     -0.65491778     -0.11907939
O      -1.40731735     -1.85208585     -0.17702778
O      -2.66348688     -0.01152908     -0.12440051
H       3.00819254     -0.02326279      0.05119343
H       1.99282310      1.51910182      0.09621313
H       0.97625851     -1.39527822     -0.07967484
H      -0.48492886      1.17441174      0.00303617
H      -2.56932974      0.94601783     -0.07390857
