10
b3lypvtz=-186642.97419201
N      -2.40461788     -0.39842944      0.26632865
N      -1.75598772      0.55210572     -0.20760516
C      -0.37906140      0.55324939      0.02579053
C       0.37904698     -0.55317127     -0.02576225
N       1.75593960     -0.55201425      0.20766762
N       2.40464957      0.39833049     -0.26652771
H      -3.37073848     -0.29124758     -0.07167082
H       0.06925913      1.53102266      0.14313567
H      -0.06927507     -1.53094295     -0.14314131
H       3.37078628      0.29109822      0.07141878
