14
b3lypvtz=-169706.67450311
C       2.63946735      0.29661848     -0.21339648
C       1.32752642      0.45387979     -0.09993079
C       0.43166572     -0.52865404      0.59134001
O      -0.63342021     -0.98697897     -0.25423969
C      -1.75251902     -0.23131657     -0.35621333
C      -2.03213097      0.94291453      0.20575502
H       3.26027798      1.03672083     -0.70068743
H       3.14319100     -0.57772223      0.18290426
H       0.84848142      1.33395691     -0.51411608
H       0.00509306     -0.10486238      1.50596689
H       0.98957870     -1.42446691      0.86048651
H      -2.46675753     -0.73065447     -0.99938017
H      -2.99791111      1.38713243      0.01882561
H      -1.35034782      1.48770860      0.84087467
