15
b3lypvtz=-157236.3477921
C      -1.27508755     -1.53519107     -0.07198463
C      -0.71632883     -0.35811972      0.15520397
C      -1.15784338      1.08430755     -0.01287198
C       0.34107905      1.45234583     -0.21664079
C       0.72226934      0.06060019      0.40381799
N       1.76224062     -0.79643127     -0.11673100
H      -2.31768939     -1.62597215     -0.35100923
H      -0.69699077     -2.44680016      0.01204138
H      -1.84822904      1.30073281     -0.82720425
H      -1.56420145      1.50800961      0.90830276
H       0.71707925      2.34546748      0.28181528
H       0.60480276      1.49044217     -1.27434216
H       0.89545607      0.18530693      1.47772920
H       1.68277435     -0.89235199     -1.12240262
H       2.68490396     -0.43518920      0.09187609
