13
b3lypvtz=-203061.1462987829
C      -1.57418505     -0.07484298     -0.48796401
C      -0.40636671      0.32095446      0.41131595
C       0.68359105     -0.71695466      0.42487623
N       1.80676053     -0.51278838     -0.19504779
O       2.80676201     -1.27867031     -0.30410959
O       0.08434912      1.58018938     -0.06454578
H      -1.24151431     -0.13175288     -1.52469710
H      -1.96865362     -1.04940610     -0.19893190
H      -2.37182198      0.66406028     -0.41281703
H      -0.78436878      0.43514536      1.43470630
H       0.55643486     -1.67259631      0.91284977
H       1.87187571      0.40693773     -0.65214790
H       0.53713717      2.02972440      0.65651285
