14
b3lypvtz=-190601.47842604
C      -2.81113563      0.43834379      0.10093951
C      -1.57649340     -0.32162919     -0.25054532
N      -0.45389015      0.01853894      0.23341366
O       0.57904957     -0.82052015     -0.19770198
C       1.83032206     -0.35142467      0.35459368
N       2.33977899      0.86569585     -0.18906328
H      -3.54247850     -0.21538647      0.58326860
H      -3.28735870      0.83938290     -0.79750412
H      -2.57562653      1.26069507      0.77389877
H      -1.64586564     -1.17566741     -0.92465616
H       1.70560545     -0.23989893      1.43179688
H       2.51506313     -1.17136343      0.14376007
H       2.45748415      0.80357859     -1.19280180
H       1.71743221      1.63814012      0.01206450
