12
b3lypvtz=-189880.71613721
O       2.39841412      0.37492967      0.04222029
C       1.09807672      0.03798487      0.06701906
N       0.64117421     -1.14479690     -0.04025478
C      -0.81995956     -1.01156746      0.07171860
C      -1.11141116      0.50757747     -0.07762031
N       0.20328949      1.07416585      0.25927401
H       2.89247811     -0.44889421     -0.06054526
H      -1.32602860     -1.60724214     -0.68768856
H      -1.14770917     -1.37871616      1.04896291
H      -1.88550761      0.86432379      0.60018356
H      -1.40189520      0.75952489     -1.10275511
H       0.45907867      1.97281034     -0.12051444
