12
b3lypvtz=-166577.43048334
C       0.27617740      1.12211870     -0.02245940
C       1.53231324      0.56791052      0.06646212
N       1.39633416     -0.78789047      0.04507546
C       0.05906359     -1.12255498     -0.04894952
C      -0.65998910      0.05193342     -0.09546619
N      -2.04997703      0.19457989     -0.27230692
H       0.04812994      2.17494903     -0.04443884
H       2.49869014      1.03509965      0.13996161
H       2.15038822     -1.44654589      0.09592909
H      -0.26351405     -2.14818145     -0.08669664
H      -2.56586710     -0.63121172     -0.00450467
H      -2.42174939      0.98979331      0.22739389
