13
b3lypvtz=-177394.27739882
C       2.63022605     -0.14087833      0.00431337
N       1.42809784      0.28398834      0.04936252
C       0.35330435     -0.56898238     -0.01671197
C      -0.90582658     -0.04431158     -0.01060217
N      -1.12990477      1.31794579     -0.08854050
N      -2.03777485     -0.83374146     -0.03387886
H       3.44793574      0.56888656      0.06828554
H       2.88539601     -1.20082722     -0.09721799
H       0.49441408     -1.64518839     -0.10398526
H      -0.25730925      1.82637071     -0.02149956
H      -1.83611594      1.67393494      0.53995810
H      -2.92327450     -0.37560711      0.09264492
H      -1.96789517     -1.73999785      0.39496787
