13
b3lypvtz=-156513.63490889
C       2.14528296      0.01023871     -0.00000119
C       0.65552007      0.08205269      0.00000171
C      -0.19848570      1.16102094     -0.00000318
C      -1.53261603      0.66663889      0.00000194
C      -1.45985980     -0.70269326     -0.00000739
N      -0.12923392     -1.04653924      0.00000800
H       0.22115854     -1.98755828     -0.00000585
H       2.53215949     -0.50858760     -0.88199253
H       2.53216484     -0.50857645      0.88199427
H       2.56432505      1.01513508     -0.00000945
H       0.10622707      2.19458267     -0.00001465
H      -2.43809889      1.24951782      0.00000633
H      -2.23094070     -1.45306597     -0.00000400
