11
b3lypvtz=-178988.28163934
C      -1.02144743     -0.57909870     -0.04623461
C       0.14078966     -0.07478742     -0.93795354
C       1.09074370     -0.43881615      0.22417046
O       2.19757368     -0.82212787      0.44149380
C      -0.11674215      0.23159436      0.91537847
N      -0.02786869      1.26246435     -0.21259335
H      -1.96908195     -0.08874983     -0.25906172
H      -1.11103219     -1.65023438      0.11838001
H       0.25743943     -0.13764095     -2.01520769
H      -0.29305208      0.51743701      1.94752428
H       0.85267803      1.77995958     -0.17589608
