13
b3lypvtz=-177405.00493056
C       2.66706722     -0.19510615      0.11508237
C       1.43187218      0.21383992     -0.18367785
N       0.30616666     -0.57852873     -0.03152086
C      -0.86817857     -0.05909783      0.00540010
N      -1.98001652     -0.87834298     -0.09378269
N      -1.19092865      1.27788488      0.15828745
H       3.51741248      0.45026838     -0.04976533
H       2.84154516     -1.18003959      0.52641449
H       1.31222943      1.21221452     -0.61510983
H      -2.74959413     -0.64327793      0.51493507
H      -1.73179732     -1.85530086     -0.06869252
H      -0.42245634      1.92600477      0.14005607
H      -2.01150760      1.59773260     -0.33095747
