12
b3lypvtz=-189862.78807859
C       1.79647038     -1.01468970     -0.85770113
N       0.70165449     -0.85887333     -0.25440228
C       0.01351934      0.42675817     -0.31213938
C      -1.29360278      0.38948243      0.48426122
N      -2.10081507      1.35277025      0.61393436
O      -1.55045739     -0.79050937      1.07174666
H       2.29735864     -1.97792935     -0.80573565
H       2.28550999     -0.22833441     -1.44217232
H      -0.21944958      0.69190219     -1.34657851
H       0.64499051      1.21907258      0.09786353
H      -1.76614588      2.17187789      0.11242395
H      -0.80893266     -1.38152737      0.84439955
