11
b3lypvtz=-202287.51188773
C      -1.07017176     -0.73967987      0.91733540
C       0.16640028     -0.28526578      0.19008286
N       1.22370446     -0.87902354     -0.14592070
O       2.09812088     -0.00150208     -0.82276954
C      -0.44397477      1.08610915      0.08437012
O      -1.61779214      0.60107839      0.78991618
H      -0.93014586     -1.03240124      1.96094126
H      -1.67966703     -1.48673035      0.40276048
H       2.85074076     -0.56785694     -1.02068855
H      -0.67289160      1.42602130     -0.92897099
H       0.07567677      1.87925096      0.62812341
