13
b3lypvtz=-177388.72555895
C      -1.86338648      0.75827375     -0.06120743
C      -0.61060796     -0.03337244      0.15708125
N       0.52516467      0.53191804     -0.11087006
N       1.60218925     -0.33050826      0.10326982
C       2.73798175      0.21702727     -0.04945757
N      -0.75212758     -1.28745589      0.66294177
H      -2.51445030      0.25811584     -0.78274423
H      -2.42109859      0.86232141      0.87191997
H      -1.60631249      1.74345082     -0.43842840
H       3.62402226     -0.39165024      0.08820338
H       2.84153855      1.26961347     -0.31227247
H       0.08134686     -1.85365551      0.68277665
H      -1.64425995     -1.74407827      0.61813967
