11
b3lypvtz=-202319.89068005
C      -1.45966570      1.27169887     -0.00000195
C      -1.07200674     -0.18578528     -0.00000185
O      -1.88966000     -1.08299716     -0.00000309
C       0.37217257     -0.54496714      0.00000320
N       1.25344172      0.37331833      0.00000330
O       2.54008193     -0.13743425      0.00000879
H      -2.54362622      1.34884141     -0.00001687
H      -1.04692901      1.77559846     -0.87512372
H      -1.04695548      1.77558865      0.87513823
H       0.62480301     -1.60272800      0.00000678
H       3.09389992      0.65154311      0.00000820
