11
b3lypvtz=-176604.9002434425
C      -0.08000296      0.05418059     -0.80506673
C      -1.19149196     -0.12094483      0.19952920
N      -1.66249762     -1.26540994      0.46308238
C       1.13918193      0.72289182     -0.21874417
N       1.95547813      0.05060306      0.52893167
N       2.66514464     -0.56085459      1.16810408
H      -0.43331945      0.68571151     -1.62427896
H       0.15731270     -0.92516838     -1.22403205
H      -1.53021316      0.80162300      0.68693677
H      -2.39459181     -1.20954432      1.17108027
H       1.37499958      1.76691210     -0.34554247
