15
b3lypvtz=-157250.06583318
C       2.50895175      0.14032367     -0.44362784
C       1.45631023     -0.43115677      0.12668256
C       0.32785623      0.32207234      0.77753146
C      -1.00554303      0.19551643      0.05855804
C      -1.53312858     -1.20085821     -0.16538971
N      -1.59291983      1.26390021     -0.29492717
H       2.62124823      1.21758350     -0.47613898
H       3.29713290     -0.44810963     -0.89481134
H       1.39026442     -1.51516477      0.13777968
H       0.56390008      1.38252677      0.84448424
H       0.19125273     -0.05640120      1.79863940
H      -1.55053414     -1.76626111      0.76976398
H      -0.88739619     -1.74872900     -0.85536347
H      -2.54013814     -1.17962957     -0.58061639
H      -2.48273366      1.05689535     -0.75173745
