10
b3lypvtz=-214810.70253824
O       2.22003539     -0.62027403     -0.37647987
C       1.56120848     -0.04953376      0.45023073
C       0.06782022      0.22761125      0.27669028
O      -0.53024107      0.80856078      1.15512091
C      -0.61124411     -0.23302336     -0.98485278
O      -1.97276765      0.09135159     -0.99532657
H       1.97135502      0.32536217      1.40647193
H      -0.08680734      0.21746879     -1.83779739
H      -0.45786716     -1.31613504     -1.07830365
H      -2.16139179      0.54861160     -0.16285359
