9
b3lypvtz=-178272.82112158
C      -2.26701048     -0.42145052     -0.00001130
C      -0.97186682     -0.72904204      0.00001980
C       0.06188789      0.32845843      0.00003871
O      -0.14816430      1.51886475      0.00001700
C       1.45616041     -0.16650921      0.00000137
N       2.54053782     -0.55331779     -0.00004350
H      -2.58739030      0.61235331     -0.00002779
H      -3.02846564     -1.18868649     -0.00002168
H      -0.62717859     -1.75514645      0.00002438
