12
b3lypvtz=-194859.91371472
C       0.51241108      1.69852357     -0.14979740
C       0.05877334      0.47975802      0.14039512
C       0.96163785     -0.67728091      0.37379175
N       2.09918039     -0.89861904     -0.14061177
C      -1.40560433      0.21423012      0.32311527
F      -1.82026124     -0.81286065     -0.52915840
H      -0.16241296      2.52610611     -0.32479928
H       1.57217238      1.91386366     -0.19978341
H       0.58018427     -1.42657229      1.07126995
H       2.34761543     -0.16725073     -0.81111383
H      -2.00207505      1.09939126      0.10178782
H      -1.61821216     -0.11566213      1.34424019
