18
b3lypvtz=-147939.19344349
C       2.06615927      0.16317927     -0.45264387
C       0.78375279     -0.60742402     -0.24164416
C       0.16074425     -0.74101998      1.12820639
C      -0.55349104      0.03819820      0.04956157
C      -1.77702925     -0.59894467     -0.57871752
C      -0.66477486      1.54272999      0.19123088
H       2.93227905     -0.47509930     -0.26265983
H       2.14750023      0.53157549     -1.47825217
H       2.14541388      1.02147268      0.21442672
H       0.71553004     -1.49705276     -0.85902588
H      -0.24093295     -1.70031343      1.42819566
H       0.61561045     -0.18020064      1.93559422
H      -1.95378529     -0.20439636     -1.58318310
H      -2.67255414     -0.40050100      0.01673277
H      -1.66613458     -1.68131309     -0.66114979
H       0.20321737      1.98122609      0.68161918
H      -0.77545632      2.02327075     -0.78482634
H      -1.54322788      1.80410976      0.78707526
