13
b3lypvtz=-203109.62247241
N       1.87311145     -1.25581413      0.68696179
C       1.16446508     -0.45876804      0.00903378
O       1.42156729     -0.16147695     -1.29355593
C      -0.01841820      0.25078784      0.62839983
C      -1.29286653      0.19765585     -0.20315418
O      -1.06989883      0.95787405     -1.40594781
H       2.63777034     -1.61933889      0.11773562
H       0.69548781      0.38384969     -1.64451971
H      -0.19544211     -0.19357976      1.60525191
H       0.24356668      1.30205059      0.78349532
H      -2.12082337      0.63304966      0.36231958
H      -1.54823673     -0.83726517     -0.44964865
H      -1.79018288      0.80097525     -2.02317156
