15
b3lypvtz=-157247.48402703
C       1.52804365      1.31295845     -0.27238900
C       0.97497019      0.15959338      0.09259842
C       1.65096576     -1.16422463     -0.13829358
C      -0.37732682      0.12421849      0.77646391
C      -1.47611090     -0.44458027     -0.09343241
N      -2.55727172      0.11746307     -0.43312053
H       2.49373374      1.34717275     -0.76061818
H       1.03747882      2.26147336     -0.09417842
H       1.81004477     -1.68910773      0.80836579
H       2.61683661     -1.03747786     -0.62517892
H       1.04338009     -1.82374350     -0.76329901
H      -0.30422192     -0.50396245      1.67339982
H      -0.66344232      1.12634460      1.10015886
H      -1.31294416     -1.45919162     -0.46417311
H      -2.61777179      1.06015097     -0.03968965
