13
b3lypvtz=-179761.6031553447
C       1.97901422     -0.12300848     -0.40576776
O       0.92707642     -0.19938837      0.53998538
C      -0.28714442      0.32905346      0.07742145
C      -1.45734956      0.24660594      1.09040347
N      -2.23391720     -0.53596602      0.07111257
C      -1.23580832     -0.53764777     -0.73235054
H       2.16665099      0.91427477     -0.70841945
H       2.87067251     -0.52056427      0.07458839
H       1.76600723     -0.71634717     -1.30195430
H      -0.13788272      1.32851352     -0.35316772
H      -1.22275574     -0.34965779      1.97024124
H      -1.93623958      1.18028125      1.38630500
H      -1.19832381     -1.01614906     -1.70839774
