14
b3lypvtz=-167330.37303932
C      -2.67909310     -0.10924035     -0.00000806
C      -1.41076191      0.30603694      0.00000091
N      -0.30230813     -0.51900277      0.00001499
C       1.03499805     -0.16966133      0.00000680
C       1.35692077      1.30409144      0.00000708
N       1.88469464     -1.12369012     -0.00000074
H      -2.94259171     -1.15899488     -0.00000655
H      -3.48334498      0.60914735     -0.00001835
H      -1.18646914      1.36325554     -0.00000135
H      -0.45286897     -1.51758843      0.00000850
H       0.94550456      1.80043099      0.88100427
H       2.43528784      1.44187982      0.00002122
H       0.94552882      1.80042489     -0.88100511
H       2.83334827     -0.76406308     -0.00000360
