11
b3lypvtz=-225668.24611001
N       1.40886969      0.88978018     -0.01836486
C       0.71068815     -0.23315583      0.24485693
O       1.09062977     -1.13637344      0.97325254
C      -0.65438310     -0.33972054     -0.47817829
O      -1.37655150     -1.37686759      0.09493589
O      -1.36203255      0.88350300     -0.43027149
H       0.94358955      1.66333055     -0.46210515
H       2.27212000      1.05199193      0.47237534
H      -0.48078071     -0.51956544     -1.54493458
H      -0.76319116     -1.81150625      0.71410312
H      -1.78895813      0.92888343      0.43443055
