15
b3lypvtz=-180519.2752878789
C       2.37279945      1.11600031     -0.04113715
N       1.21348551      0.46575403     -0.13036739
C       0.71910849     -0.60927390      0.48576882
C      -0.58655103     -1.20607701      0.05936087
C      -1.74967072     -0.22637867     -0.04595786
O      -1.45373490      0.70228210     -1.10639020
H       3.13089115      0.76328301      0.63750167
H       2.49980931      2.00622250     -0.62872095
H       0.54313788      0.87827809     -0.77719764
H       1.37002180     -1.12729447      1.17391324
H      -0.86499526     -1.96800215      0.79042211
H      -0.51927174     -1.73103626     -0.90683480
H      -2.67566182     -0.76464188     -0.27587616
H      -1.87637180      0.30879325      0.90028116
H      -2.12299633      1.39209104     -1.11715986
