11
b3lypvtz=-178986.88032911
C      -2.63213981      0.27218689      0.12825436
C      -1.20303863      0.03427200      0.01805601
C      -0.01566947     -0.14931530     -0.06097636
C       1.36621206     -0.42635423     -0.20339251
N       2.24239917      0.27582320      0.40881623
O       3.52962497     -0.18168252      0.11655810
H      -3.18577258     -0.31468618     -0.60684521
H      -2.86595955      1.32607101     -0.03550687
H      -2.99777797     -0.00024178      1.12064739
H       1.67385733     -1.25068514     -0.84588570
H       4.08826448      0.41461205      0.62562577
