11
b3lypvtz=-204931.80934461
C       1.62200388     -0.66409670      0.57342955
N       0.37118213     -0.77830461      0.69752363
C      -0.51248753     -0.26343350     -0.25860913
N      -0.97002692     -0.88936791     -1.26334639
C      -1.04125623      1.11508919      0.05468651
F       0.01638621      1.99797211      0.26948423
H       2.10075323     -0.15800830     -0.26825079
H       2.26866896     -1.09007888      1.33688402
H      -0.57769558     -1.83033159     -1.31720329
H      -1.64600284      1.09389915      0.96381911
H      -1.63152530      1.46666106     -0.78841747
