8
b3lypvtz=-211653.45626588078
C      -0.71201329     -0.52002492      0.00986797
N      -1.46773235      0.54525087     -0.04796793
N      -2.11065020      1.46548020     -0.09772715
C       0.73153687     -0.40618044      0.02960157
O       1.48465515     -1.34888229      0.08233882
O       1.15688350      0.88570150     -0.01786125
H      -1.20634466     -1.47487649      0.04178894
H       2.12366498      0.85353157     -0.00004098
