15
b3lypvtz=-180541.93715247
C      -1.11039890      0.91614163     -0.08056348
C      -1.41725421     -0.56462198     -0.16168832
C      -0.01547665     -0.08337537      0.11706493
C       1.03632765     -0.24147253     -0.96049589
O       2.09169421      0.68883319     -0.79739816
N       0.58777523     -0.18736957      1.43339957
H      -1.11157714      1.49591928     -0.99309205
H      -1.46999640      1.45668904      0.78576450
H      -1.96648714     -1.00805797      0.65822905
H      -1.63910021     -0.98926696     -1.13236152
H       0.60115491     -0.07398820     -1.94682185
H       1.42037044     -1.27259258     -0.93983523
H       2.26107325      0.71436048      0.15460873
H       0.05361804      0.30276614      2.13776991
H       0.67827691     -1.15396459      1.72541979
