11
b3lypvtz=-197472.96325803
C       2.25601533      0.81972329     -0.02217772
N       1.91484367     -0.40758734     -0.07549268
N       0.63331562     -0.78144943      0.12674121
N      -0.39160686      0.12616965      0.09203451
N      -1.49616862     -0.42707260     -0.03746709
N      -2.53479768      0.45865106     -0.12046076
H       3.30790915      1.03059133     -0.16096896
H       1.56607556      1.63894350      0.15103312
H       0.41599915     -1.71453848     -0.19840828
H      -3.37836339      0.03558127      0.23476988
H      -2.33097193      1.36988275      0.27990277
