16
b3lypvtz=-168057.68446256
C      -2.04232647      0.10918148     -0.66137159
N      -1.39248658     -0.21519307      0.59980327
C       0.04198868     -0.09434462      0.68701841
C       0.93486477     -1.04002151     -0.14980289
N       1.92173422      0.06192351     -0.26707115
C       0.87656408      1.06457111      0.05143806
H      -3.11294732     -0.07214164     -0.56209741
H      -1.90465109      1.14620380     -0.99895871
H      -1.67704203     -0.54660342     -1.45270044
H      -1.83618013      0.27540387      1.36325612
H       0.31000892     -0.18829064      1.73888652
H       0.45934561     -1.31738516     -1.09722463
H       1.30551041     -1.94442603      0.33552040
H       2.34868918      0.16060850     -1.17915447
H       1.20297070      1.87608535      0.70509677
H       0.38595604      1.49308947     -0.82961926
