13
b3lypvtz=-179802.37243959
C       0.79586008      1.27143856     -0.65740542
C       0.28565853     -0.00000229      0.03569129
C       0.79575840     -1.27160253     -0.65719037
O       0.64329833      0.00010209      1.42057257
C      -1.19191540      0.00004485      0.01613256
N      -2.33942809      0.00003122     -0.05216911
H       1.88767772      1.27243047     -0.64927641
H       0.43886315      2.15412663     -0.13024330
H       0.46093220      1.31850970     -1.69340880
H       0.43870184     -2.15417121     -0.12986873
H       1.88757618     -1.27267389     -0.64907675
H       0.46081074     -1.31882933     -1.69318019
H       1.60524732      0.00005874      1.47639664
