13
b3lypvtz=-184789.52181087
C      -2.25080445     -0.68691287      0.14573935
C      -0.94282554     -0.70087302     -0.09899589
C      -0.03292893      0.45168684      0.02244340
C      -0.38088462      1.70828796     -0.25792441
C       1.36306880      0.13675854      0.48667276
F       1.96371660     -0.78919132     -0.37672565
H      -2.85247035     -1.57738981      0.02317580
H      -2.76090313      0.20608320      0.48523069
H      -0.47078352     -1.63236477     -0.39390968
H       0.32239877      2.52392517     -0.15084054
H      -1.37365206      1.95867466     -0.60702942
H       1.35745079     -0.31962828      1.47998614
H       1.98631366      1.03099970      0.50203444
