13
b3lypvtz=-156468.74531586
C      -0.84691685     -1.02418454      0.13309692
C      -1.36555895      0.38652051     -0.01988036
C      -0.41451572      1.18317839     -0.49942605
C       0.85363008      0.42444627     -0.66998272
C       1.42849623     -0.14367783      0.58022259
N       0.57838550     -0.97813920     -0.27022760
H      -0.93984790     -1.40577576      1.15421732
H      -1.37813225     -1.72534470     -0.51775329
H      -2.37034722      0.68557036      0.24537607
H      -0.51644690      2.23523891     -0.72456513
H       1.47841934      0.58718425     -1.54030051
H       1.02655469      0.22833765      1.51713631
H       2.46637995     -0.45325431      0.61208646
