14
b3lypvtz=-190610.67165947
C      -1.85376255     -1.12333573      0.04871285
C      -0.96023973      0.05183718     -0.31617504
O      -1.61790794      1.22851680      0.18112534
C       0.41290706     -0.06392606      0.27805672
N       1.44755107      0.00731142     -0.45742284
N       2.68254365     -0.00847922      0.13747290
H      -1.94719174     -1.20941106      1.13268034
H      -2.84994372     -0.97575816     -0.36820719
H      -1.44247774     -2.05424604     -0.34301647
H      -0.84689897      0.11047902     -1.40317858
H      -1.07936431      1.99112235     -0.05431927
H       0.47643704     -0.17209803      1.36775426
H       3.37698996     -0.35259297     -0.50710163
H       2.72403992     -0.48578150      1.03420463
