14
b3lypvtz=-193016.56389097
C       2.68865385      0.21618704      0.29126485
C       1.47447784      0.67605928      0.02360797
C       0.29101066     -0.18362549     -0.27799818
O      -0.78711070      0.19879315      0.58286213
C      -1.99687016     -0.45090157      0.30273682
O      -2.57643217     -0.06152443     -0.92166169
H       2.89679605     -0.84642459      0.33638213
H       3.52125352      0.88356153      0.46978017
H       1.29001203      1.74523028     -0.00432927
H      -0.01633859     -0.05136330     -1.32107846
H       0.53151588     -1.24306531     -0.12766418
H      -1.85653926     -1.53338932      0.22244593
H      -2.64883892     -0.22011779      1.14825415
H      -2.81159004      0.87058053     -0.85751290
