14
b3lypvtz=-195630.49627109
N      -2.98053163      0.02909663     -0.17271566
C      -1.86753220     -0.18142517      0.39238930
C      -0.51222122     -0.32473120     -0.24318374
C       0.49372629      0.70771227      0.28629465
C       1.89273755      0.50707030     -0.25786121
F       2.39040171     -0.73716337      0.14102507
H      -2.86546497      0.09480573     -1.18758682
H      -1.87908275     -0.26871190      1.48321704
H      -0.60504056     -0.24290387     -1.32990854
H      -0.12674042     -1.32496819     -0.02319094
H       0.53325383      0.66474307      1.37777261
H       0.16859879      1.71821370      0.02150582
H       2.57752342      1.26825762      0.12040448
H       1.90709915      0.52590538     -1.35050005
