12
b3lypvtz=-189871.49798539
N      -1.68758971     -0.89697023     -0.23053172
C      -0.71560283     -0.07874535      0.43720497
C      -0.42515838      1.41309775      0.02287047
N       0.96185556      1.00061145     -0.19786116
C       0.77620469     -0.33241008      0.06524819
O       1.50392344     -1.28579561      0.00884818
H      -2.63599977     -0.64681878      0.01543003
H      -1.59331768     -0.86836030     -1.23768803
H      -0.85680012     -0.16433039      1.51539956
H      -0.94883280      1.72312269     -0.88373130
H      -0.55621152      2.16290095      0.80515068
H       1.78479713      1.50842988     -0.48296987
