16
b3lypvtz=-168086.25504421
C      -1.24943902      1.32740809      0.03191319
C      -0.97845268     -0.15573377      0.08235859
N      -1.69977029     -1.04770883     -0.46448067
C       0.24090396     -0.60694267      0.85802525
C       1.54176844      0.11255902      0.49366235
N       1.76889812      0.07172921     -0.95283460
H      -1.21176281      1.77215607      1.02948927
H      -2.22605398      1.53256804     -0.40567186
H      -0.48587254      1.81809402     -0.57498513
H      -2.50218967     -0.62632685     -0.93548337
H       0.34407357     -1.68183838      0.70231855
H       0.05301993     -0.45482319      1.92666396
H       2.35269255     -0.33435432      1.08496971
H       1.48425369      1.16251624      0.79151676
H       2.66391882      0.48155307     -1.19027037
H       1.78267691     -0.88638874     -1.28392863
