13
b3lypvtz=-179781.98018891
C      -1.34730071      0.88844865      0.02640256
C      -0.25095507      0.13434472      0.07016427
C      -0.21799763     -1.19773685      0.72924361
N      -0.92636362     -1.61447122      1.69722183
C       1.03544584      0.57295161     -0.58078103
O       1.34711383     -0.34652432     -1.62891672
H      -1.35122957      1.85058161     -0.46863980
H      -2.28040903      0.56526615      0.47065876
H       0.52360492     -1.88557048      0.32177989
H      -1.57099629     -0.88774038      2.01860247
H       1.83735010      0.58287040      0.16818766
H       0.92510909      1.59075449     -0.96865883
H       2.27682811     -0.25307437     -1.85526467
