15
b3lypvtz=-180554.99845469
C      -2.50773887     -0.17776337      0.19190335
C      -1.11620502     -0.69706515     -0.00376619
C      -0.03184903      0.06181163     -0.18025402
O      -0.08600556      1.42700736     -0.04360147
N       1.24313209     -0.40473466     -0.54341447
C       2.31745019     -0.24496200      0.44482639
H      -3.20504283     -0.63181789     -0.51813519
H      -2.88677984     -0.40332448      1.19336601
H      -2.54421555      0.90249822      0.06141258
H      -0.97061645     -1.77067086     -0.00778323
H       0.57280939      1.80042568     -0.64200939
H       1.18754851     -1.35642090     -0.87681899
H       2.16081542     -0.84701336      1.34799152
H       3.26662874     -0.52760638     -0.00921802
H       2.38559179      0.79884817      0.74553112
