10
b3lypvtz=-189107.79088717
C      -0.30351710     -0.88285486      0.06395286
C       0.71900403      0.03451527     -0.05360375
C       0.08507552      1.27796769     -0.24668777
N      -1.23779802      1.14574529     -0.24949763
N      -1.45273015     -0.16001622     -0.06130651
O       2.07108245     -0.13981883     -0.00541486
H      -0.30340193     -1.94769993      0.22017461
H       0.54374800      2.24315504     -0.38059410
H      -2.39590526     -0.50200614     -0.02679962
H       2.27444245     -1.06898732      0.13471651
