14
b3lypvtz=-223952.84995469
C      -2.28264546      0.06373811     -0.66825116
C      -1.49750358     -0.01294034      0.64256621
C      -0.13864220     -0.71315689      0.53045024
C       0.87183297      0.02231708     -0.31571952
F       1.13890604      1.25715953      0.22166151
F       2.05580366     -0.66903044     -0.33292431
H      -2.44153406     -0.92970614     -1.09385870
H      -3.26273263      0.51384366     -0.50603443
H      -1.77129929      0.66877373     -1.41888700
H      -1.34836146      0.99116947      1.04479977
H      -2.09097094     -0.55296146      1.38337182
H      -0.25737888     -1.71193705      0.10257177
H       0.30948557     -0.83531305      1.51898646
H       0.57297326      0.17934778     -1.35347366
