11
b3lypvtz=-202340.62853784
C       0.31443402      0.32558979     -0.06632785
C      -1.01139956      0.08879662     -0.07869413
O      -1.97386432      0.98566511      0.24226359
O      -1.54806375     -1.09138573     -0.41838260
C       1.30895696     -0.66766260     -0.41849117
N       2.57881070     -0.52999650     -0.43334630
H       0.64989624      1.31430199      0.22354760
H      -1.57105117      1.82706811      0.48384720
H      -2.50862528     -1.02473326     -0.35358482
H       0.91822562     -1.64514728     -0.70313658
H       2.84268053      0.41750375     -0.15213611
