16
b3lypvtz=-193792.76479695
C      -2.01434627     -0.12213534     -0.12010772
O      -0.74815178     -0.62961429     -0.51610917
C       0.39957254      0.01191831      0.02776962
C       1.58183304     -0.72177292     -0.59468388
C       0.43299061      1.50952939     -0.25838553
O       0.41409386     -0.11113326      1.44416503
H      -2.75225131     -0.85322497     -0.44529702
H      -2.07941729     -0.00506743      0.96373491
H      -2.23935916      0.83556355     -0.59876110
H       2.51630210     -0.34351480     -0.18307477
H       1.50445662     -1.78964507     -0.38342593
H       1.58779342     -0.59328016     -1.67649118
H       1.38147985      1.92743193      0.07577786
H       0.32347347      1.68990662     -1.32719075
H      -0.36448464      2.02395771      0.27497536
H       0.45972493     -1.05078427      1.65498926
