15
b3lypvtz=-180544.03191087
C      -1.52981868      0.14521417      0.74246550
C      -0.17470743      0.07718344      0.07699997
C       0.44849919     -1.27765160     -0.19463674
C       1.03710895     -0.37168152      0.85875253
O       2.25648666      0.26141866      0.62999232
N       0.14257340      1.09752092     -0.90403208
H      -2.33319350     -0.00174060      0.01480689
H      -1.68212464      1.11654683      1.22151086
H      -1.63317673     -0.62172170      1.51184863
H      -0.10183398     -2.15802700      0.11016367
H       1.02303968     -1.38618003     -1.10498598
H       0.91139521     -0.64168289      1.89950016
H       2.10490561      0.83028527     -0.14251750
H      -0.31226649      0.91893028     -1.79147815
H      -0.15688727      2.01158577     -0.58325471
