16
b3lypvtz=-193772.08074182
C       2.97523148      0.22580676     -0.27897936
O       1.66268767      0.63655182      0.03509595
C       0.67730895     -0.27694595     -0.40216012
C      -0.67731755      0.27702861     -0.00462256
O      -1.66269460     -0.63651151     -0.44178605
C      -2.97523096     -0.22586534     -0.12754394
H       3.11778276      0.12486927     -1.36232439
H       3.22112883     -0.73376826      0.19315140
H       3.65408863      0.98913870      0.09719507
H       0.71903952     -0.40816982     -1.49144719
H       0.82403657     -1.26295858      0.05792767
H      -0.82407706      1.26301054     -0.46476201
H      -0.71900015      0.40831810      1.08466068
H      -3.65404724     -0.98940321     -0.50338082
H      -3.11754728     -0.12466167      0.95579643
H      -3.22138958      0.73356054     -0.59984672
