14
b3lypvtz=-188186.99719626
C       2.92094993     -0.17417358     -0.06027662
C       1.59291861      0.52124480      0.20093495
N       0.48282928     -0.35419712     -0.15707426
N      -0.73452526      0.27655189     -0.18958442
N      -1.67690458     -0.46168709      0.13488811
N      -2.91001316      0.12128609     -0.08023752
H       3.00812921     -0.45989489     -1.10866284
H       3.75130480      0.48619052      0.19176745
H       3.02272452     -1.07709113      0.54609477
H       1.53612784      0.84622451      1.24895110
H       1.50074640      1.41600527     -0.41500698
H       0.44267223     -1.22670244      0.36614263
H      -2.85962601      1.13663101     -0.11644843
H      -3.55813581     -0.21182485      0.61805707
