10
b3lypvtz=-189100.99311469
C       2.23784043     -0.18554527     -0.10973848
N       1.19599600     -0.46753203      0.54221237
C      -0.00298395      0.22951063      0.38938724
O      -0.15053500      1.38916609      0.70117649
C      -1.15360010     -0.62185070     -0.10848416
N      -2.31305652     -0.15449952     -0.28339717
H       3.15753027     -0.72768476      0.09523224
H       2.26609819      0.58670148     -0.88215943
H      -0.94435218     -1.66779435     -0.32554612
H      -2.31634013      0.83813943     -0.02059198
