16
b3lypvtz=-168093.29590758
C      -3.00399039      0.07568813      0.17909133
C      -1.60637301     -0.54047294      0.14364700
C      -0.53777675      0.44315679     -0.33672002
N       0.76051730     -0.19212805     -0.44629047
C       1.72963450      0.30795046      0.19454438
N       3.01771721     -0.16513216      0.09649252
H      -3.74684538     -0.64690395      0.52006732
H      -3.04485773      0.93414988      0.85377778
H      -3.30923031      0.42100755     -0.81143990
H      -1.59329000     -1.41160515     -0.51534175
H      -1.33122202     -0.90242536      1.13822543
H      -0.82545860      0.81281483     -1.32735915
H      -0.51544479      1.31832721      0.33322944
H       1.63569920      1.19023004      0.84123255
H       3.63040173      0.00209457      0.87644848
H       3.11249205     -1.07036086     -0.33773896
