14
b3lypvtz=-167292.17791189
C       2.69939420     -0.00006220      0.21547556
N       1.44861600     -0.00007802     -0.53647447
C       0.37588412      0.00001591      0.11417101
N      -0.88038302     -0.00000844     -0.54237962
C      -1.94202712     -0.73702153      0.16688085
C      -1.94202707      0.73703027      0.16685245
H       3.53606618      0.00047122     -0.48048953
H       2.78915081      0.88538286      0.85172974
H       2.78960869     -0.88608837      0.85085343
H       0.33960461      0.00011048      1.22070135
H      -1.67689135     -1.23736966      1.09273164
H      -2.60886494     -1.29169248     -0.47934176
H      -2.60886467      1.29167587     -0.47939205
H      -1.67689046      1.23741308      1.09268441
