12
b3lypvtz=-187439.32055546
C      -1.51234622     -0.59990296      1.47334708
C      -0.78252381     -0.28220720      0.39152916
N      -1.21707739     -0.35617595     -0.92212420
N       0.51569130      0.21884291      0.63531666
N       1.17840769      0.44305741     -0.39955623
N       2.43970809      0.84671506     -0.14866480
H      -1.09097488     -0.45117100      2.45361151
H      -2.51588028     -0.99018225      1.38764149
H      -1.97303298     -0.99835698     -1.09004582
H      -0.47509715     -0.40612548     -1.60229147
H       2.60071210      1.19706264      0.79104841
H       2.83241351      1.37844381     -0.90766585
