12
b3lypvtz=-166563.67755273
C      -0.47523171      1.84077044     -0.22651358
C      -0.18368499      0.58025261      0.09989957
C      -1.19745159     -0.43256033      0.05690448
N      -1.97059557     -1.28811406      0.04050942
C       1.20448067      0.10517259      0.50396008
N       1.79573381     -0.91401461     -0.35487164
H      -1.47001834      2.14072974     -0.52417084
H       0.28981006      2.60547481     -0.19577209
H       1.16433461     -0.29413967      1.51961394
H       1.86301197      0.97468045      0.52886506
H       1.79417210     -0.61819449     -1.32375548
H       1.27771698     -1.78298847     -0.30328193
