10
b3lypvtz=-212406.91529981
C      -1.67434917     -0.18736092      0.07548952
O      -2.20190294     -1.23249285     -0.25997560
C      -0.24598857     -0.13183854      0.35891072
N       0.29596639      0.98282756      0.68557728
N       1.60918201      0.97203292      0.98023629
O       0.44897550     -1.29118495      0.24362675
H      -2.22278938      0.76007591      0.17962066
H       2.02765829      1.88455485      0.92106340
H       2.16283026      0.20418106      0.62021872
H      -0.19958240     -1.96079503     -0.03471485
