11
b3lypvtz=-155713.20066635
C      -2.98826985     -0.17920979     -0.00011492
C      -1.84819846      0.19194699      0.00013744
C      -0.45491570      0.61685150      0.00014321
C       0.51250611     -0.59055779     -0.00003172
C       1.91009956     -0.17109918     -0.00003937
N       3.00556381      0.17980127     -0.00004074
H      -4.00109005     -0.49701481      0.00002774
H      -0.25681480      1.23850793     -0.87548645
H      -0.25673983      1.23830952      0.87589696
H       0.33105765     -1.21300573      0.87736910
H       0.33098755     -1.21280792     -0.87755826
