16
b3lypvtz=-170487.79281177
C      -1.85122218     -1.02914538     -0.43940382
C      -0.87209527     -0.52127426      0.63130974
C       0.10773173      0.51104007      0.12806296
C      -0.40573246      1.91499691     -0.04570841
C       1.37848589      0.22730870     -0.16326139
O       2.01024504     -0.98266810     -0.07045972
H      -2.43199852     -0.20955708     -0.86434491
H      -2.55435646     -1.74908984     -0.01646690
H      -1.31771212     -1.51492366     -1.25783677
H      -0.35012958     -1.37943933      1.06840702
H      -1.44408829     -0.08801125      1.45807330
H      -1.24216248      1.95847388     -0.74963330
H       0.37163216      2.58241733     -0.41877754
H      -0.77106710      2.32291509      0.90232354
H       2.06643768      0.98365101     -0.51821312
H       1.38960894     -1.64871907      0.24402631
