14
b3lypvtz=-169704.28861796
C       2.13558804      0.03169120     -0.17655073
C       1.05782533      0.58298709      0.36530624
C      -0.34178518      0.14825276      0.09544232
C      -1.33356360      1.25914711     -0.16635642
C      -0.81807995     -1.14041357      0.63220972
O      -0.48021409     -1.00153524     -0.75068350
H       3.12824589      0.39217964      0.05658207
H       2.04828430     -0.79433256     -0.86998155
H       1.15795433      1.42223900      1.04708964
H      -2.32621669      0.85054820     -0.35037956
H      -1.38750670      1.93702515      0.68811652
H      -1.03115987      1.84033159     -1.03915539
H      -1.87584639     -1.27569245      0.83983425
H      -0.13960743     -1.75614193      1.21339138
