10
b3lypvtz=-212445.65364964
N       0.97466233     -1.34129979     -0.24758269
C       0.79348712     -0.10417433     -0.42816061
O       1.71225246      0.80403958     -0.77963806
C      -0.58463398      0.52055511     -0.25160148
N      -1.55257894     -0.33525423      0.10050213
O      -0.71287674      1.72369160     -0.43704468
H       1.94453000     -1.61133159     -0.40195874
H       1.23089582      1.65455998     -0.82990286
H      -1.31441208     -1.30628013      0.22214301
H      -2.49132598     -0.00450619      0.23734397
