14
b3lypvtz=-193035.19485433
O       1.97125188     -0.10605234     -0.63059075
C       1.06651238      0.15515430      0.42771654
C      -0.00619690      1.12304241     -0.09936541
C      -1.29352051      0.27135838     -0.15550423
C      -0.76773983     -1.15596418      0.00779265
O       0.39049153     -1.01447444      0.84038909
H       2.60089033     -0.76597230     -0.31981095
H       1.60728866      0.51838506      1.30475334
H       0.29570705      1.48464094     -1.08040950
H      -0.11583813      1.98336292      0.55853691
H      -1.95757109      0.52178578      0.67203334
H      -1.84763363      0.40673961     -1.08355925
H      -1.45612374     -1.82997515      0.51417797
H      -0.48751799     -1.59213099     -0.95625976
