13
b3lypvtz=-177370.2981345672
C      -2.25590949     -0.23421179      0.38236877
C      -1.17317347     -0.08594412     -0.63572957
N       0.06893405      0.03591527     -0.30041428
N       1.10846753      0.17369038     -1.12770695
C       2.25928870      0.27274081     -0.39009862
N       2.29454305      0.23465721      0.89639106
H      -3.22141280     -0.31863229     -0.11184231
H      -2.30316317      0.62458303      1.05711597
H      -2.11966778     -1.12763513      0.99741423
H      -1.38218763     -0.07411724     -1.69667588
H       0.35168573      0.03392165      0.69720055
H       3.13710651      0.38730390     -1.02620464
H       3.23548878      0.32353401      1.25818169
