10
b3lypvtz=-191506.72173565
O      -2.28349584      1.14297962     -0.44655706
C      -1.91394517      0.04871564     -0.09493830
C      -0.49465798     -0.38712774     -0.09033461
C       0.50725969      0.40677197     -0.48141898
C       1.90624966     -0.05498490     -0.46514042
O       2.84069516      0.62721679     -0.81064179
H      -2.64110844     -0.70880928      0.25318759
H      -0.29306162     -1.39831154      0.25011944
H       0.31683518      1.41736092     -0.82297485
H       2.05522936     -1.09381150     -0.10730102
