13
b3lypvtz=-234017.09472553
N      -2.63331442      0.00000005     -0.15131228
C      -1.20474151     -0.00000310     -0.45844721
C      -0.27388459      0.00000459      0.76550558
C       1.19767267      0.00000064      0.42536159
F       1.52087416     -1.10199605     -0.32612950
F       1.52087640      1.10198582     -0.32614544
H      -2.88697443     -0.81435542      0.39589952
H      -2.88697307      0.81436278      0.39588937
H      -0.99015238      0.87351423     -1.07480474
H      -0.99015374     -0.87352919     -1.07479278
H      -0.46865918      0.87934823      1.38564979
H      -0.46866101     -0.87932988      1.38566222
H       1.85160410      0.00000631      1.30000988
