16
b3lypvtz=-170476.57207014
C      -1.42502428      1.18307297      0.35032252
C      -0.79491252     -0.02215470     -0.30523779
C       0.47909699     -0.32639229     -0.06434561
O       1.25387116      0.43001438      0.77358613
C       2.59007961     -0.01555626      0.93142347
C      -1.61818245     -0.88522671     -1.23976018
H      -1.39098461      1.10951759      1.44020267
H      -2.46690126      1.29629592      0.05321927
H      -0.89713050      2.10326080      0.08756641
H       0.97185843     -1.18341183     -0.51421272
H       3.12824177     -0.01023618     -0.02193101
H       2.62745315     -1.02358117      1.35692123
H       3.07491868      0.67659553      1.61611756
H      -2.63304879     -0.49823182     -1.32635735
H      -1.20105915     -0.91731001     -2.24906323
H      -1.69827622     -1.91665621     -0.88845138
