14
b3lypvtz=-167297.99206955
C      -2.01328301     -0.73286376      0.15257355
N      -0.74281046     -0.24746254     -0.36735172
C      -0.57227244      1.18981171     -0.46391028
C       0.15572951      0.39236378      0.57699673
C       1.61143323      0.08704382      0.45123626
N       2.14900386     -0.66705421     -0.41023617
H      -1.87120357     -1.72625645      0.57857189
H      -2.72888594     -0.81002488     -0.66659480
H      -2.44013293     -0.07867796      0.92623452
H      -1.38294517      1.82721611     -0.12293379
H      -0.03242461      1.54650456     -1.33248980
H      -0.20128532      0.53058020      1.59537461
H       2.25671714      0.58498902      1.17891240
H       1.41738272     -1.06516239     -1.00822040
