12
b3lypvtz=-166562.36499744
C       2.10986271     -0.01181927      0.03760772
C       0.77430079      0.00068343     -0.02619786
N       0.01285076      1.19505896     -0.02227448
C      -1.21926330      0.86866414      0.01328414
C      -1.46485370     -0.61552526      0.04556023
N      -0.10248594     -1.09108917     -0.12849551
H       2.64144920      0.92340947      0.09673773
H       2.67095926     -0.93443317      0.02871975
H      -2.00899120      1.61090127      0.02309036
H      -1.92407051     -0.91989047      0.99687438
H      -2.13595557     -0.94270785     -0.75685462
H       0.16643650     -1.95548508      0.30915516
