14
b3lypvtz=-167300.41636455
C      -2.11803918      0.32458653     -0.40599877
C      -1.08180323     -0.47656976      0.29945374
N      -1.53515786      0.80411625      0.86014075
C       0.27869593     -0.65883674     -0.26292152
C       1.33777756      0.09133552      0.05190695
N       2.60460477      0.01828818     -0.52159142
H      -1.82346892      0.81793645     -1.32439954
H      -3.16018432      0.03443518     -0.35013974
H      -1.45100817     -1.32478799      0.87057977
H      -0.85435281      1.52812299      0.65451783
H       0.39814595     -1.48003797     -0.96554627
H       1.24320208      0.88856566      0.78129056
H       3.36488439      0.26438546      0.09224171
H       2.79670383     -0.83153975     -1.03070520
