10
b3lypvtz=-214986.43893839
N      -2.24712053     -0.09722732      0.03758150
N      -1.19168030     -0.76530734     -0.01684383
C      -0.02737823      0.02510901     -0.02204387
N      -0.11587274      1.39544701     -0.07768721
C       1.10235204     -0.70120773     -0.00462497
F       2.30155738     -0.09373656      0.02218140
H      -3.02282422     -0.76852645      0.04301865
H       0.67048309      1.91037425      0.28112877
H      -1.02465743      1.74250826      0.19271395
H       1.12842695     -1.77738413     -0.00618440
