11
b3lypvtz=-176651.87468022
C       2.10932169      0.00355105      0.00001997
C       0.61747447      0.00096968      0.00002424
N      -0.09962333     -1.11196913     -0.00001304
N      -1.36931440     -0.64282339     -0.00001150
H      -2.14429216     -1.28342913     -0.00000542
C      -1.36850311      0.70122923      0.00010901
N      -0.12995164      1.14595859      0.00006288
H       2.47031239      1.02919917     -0.00003552
H       2.50120692     -0.50812816     -0.87975873
H       2.50121221     -0.50802795      0.87985601
H      -2.26613405      1.29747103      0.00002210
