12
b3lypvtz=-194879.95381962
N      -2.51555189     -1.02658650     -0.15427824
C      -1.82153620     -0.12340832      0.00764498
C      -0.92363368      1.01246406      0.20553068
C       0.49529034      0.77122455     -0.33955049
C       1.21332485     -0.36329327      0.36700031
F       2.50043035     -0.48256727     -0.15187826
H      -1.36388180      1.88153653     -0.28621195
H      -0.89133761      1.23939701      1.27417066
H       0.45075109      0.55749994     -1.40817380
H       1.07157383      1.68892085     -0.21252841
H       1.30532392     -0.17118394      1.43920485
H       0.70476781     -1.31750261      0.21965967
