14
b3lypvtz=-169717.55812155
C      -1.38979432     -0.00000219      0.34100462
C      -0.61900691     -1.23248141     -0.18822252
C       0.79730237     -0.73227915     -0.36101376
O       1.29330628      0.00000130      0.77311230
C       0.79730035      0.73228171     -0.36101285
C      -0.61901034      1.23247982     -0.18822103
H      -1.37014675     -0.00000282      1.42887376
H      -2.43447849     -0.00000346      0.03250977
H      -0.99736698     -1.55413628     -1.16310309
H      -0.68498068     -2.08720464      0.48684200
H       1.53837798     -1.32103351     -0.88956253
H       1.53837428      1.32103877     -0.88956097
H      -0.68498649      2.08720205      0.48684453
H      -0.99737130      1.55413481     -1.16310122
