11
b3lypvtz=-155731.39515922
C       2.06077947     -0.00139523     -0.00003643
C       0.72368462      0.00990515     -0.00003587
C      -0.17366350      1.16930345     -0.00002616
C      -1.42629791      0.67366072      0.00007138
C      -1.27906961     -0.78689897      0.00014180
N      -0.04646182     -1.18062862      0.00057553
H       2.63039093      0.91756192      0.00010909
H       2.59640556     -0.94032704     -0.00020114
H       0.13804513      2.20153594     -0.00027005
H      -2.35789618      1.21765969      0.00026820
H      -2.09656569     -1.49783701     -0.00055934
