10
b3lypvtz=-189116.18413386
C      -0.08755421      1.04995562      0.09740148
C      -1.26335703      0.34856100      0.24370633
N      -0.95355438     -0.96215593      0.14862161
N       0.37102976     -1.17339982     -0.05412712
C       0.88482620      0.04398589     -0.08364441
O       2.20656136      0.25455711     -0.26995919
H       0.05770527      2.11441096      0.11628854
H      -2.27354317      0.68422626      0.40490751
H      -1.56972145     -1.75140693      0.20939269
H       2.62760766     -0.60873418     -0.36464813
