13
b3lypvtz=-179761.37295349422
C       0.29803702     -1.14131457      0.25085383
C       1.28417723     -0.09812562      0.67915341
N       0.98427315      0.99692903     -0.00632387
C      -0.11267358      0.94125666     -0.80046363
C      -0.82834023     -0.31734725     -0.41966746
O      -1.84993655     -0.10714514      0.59493924
H      -0.10294104     -1.75448220      1.05728088
H       0.75335453     -1.80946592     -0.49295163
H       2.20851911     -0.19793124      1.21791908
H       1.55642668      1.82812753      0.04583504
H      -0.53924667      1.84632003     -1.19946618
H      -1.28257847     -0.84672722     -1.25877972
H      -2.36907119      0.65990587      0.33167103
