15
b3lypvtz=-157225.97465261
C      -2.60663420     -0.41257439      0.14213800
C      -1.48437900      0.08169145     -0.36866541
C      -0.18139510      0.08119236      0.32150931
C       0.77475149      1.23006485      0.23101241
N       1.02632511      0.00694962     -0.50569770
C       2.09768104     -0.84538645     -0.01331684
H      -3.53996865     -0.37821260     -0.40315571
H      -2.63147234     -0.86771793      1.12552710
H      -1.48415038      0.52512641     -1.35927530
H      -0.15595989     -0.46440463      1.26212335
H       1.37655393      1.43355044      1.11252337
H       0.52156077      2.10088098     -0.36196210
H       3.04469664     -0.51413930     -0.44228850
H       1.91804465     -1.87223653     -0.33389085
H       2.19270793     -0.83435029      1.08275887
