16
b3lypvtz=-168094.41935662
C       2.19758556     -0.55213990      0.55605776
C       1.36789304     -0.02042321     -0.62094982
C      -0.03610567      0.38318378     -0.20644105
N      -0.38770155      1.54305590      0.20934410
N      -0.96357181     -0.62060513     -0.28025725
C      -2.30650504     -0.45514443      0.23865417
H       1.73957993     -1.43916916      0.99686920
H       3.20352145     -0.82134437      0.23133558
H       2.28352732      0.20078169      1.33992275
H       1.85876078      0.85298709     -1.05212542
H       1.31913111     -0.77490615     -1.41092620
H       0.39705025      2.18650939      0.17154393
H      -0.63251360     -1.55318279     -0.44470845
H      -2.78412924      0.40348758     -0.23186798
H      -2.88387428     -1.35112743      0.01594803
H      -2.31192627     -0.28063987      1.31830767
