17
b3lypvtz=-158020.93741415
C      -1.05927770      1.17760552     -0.62412997
C      -0.44140023      0.31716701      0.48977317
C      -1.17290795     -1.02608082      0.61950235
C       1.06272433      0.15147337      0.29289051
N       1.93987997      0.70589603      1.02815303
C       1.53812607     -0.71335527     -0.84725158
H      -0.55662197      2.14210562     -0.70591923
H      -0.99812428      0.68122796     -1.59408192
H      -2.11444807      1.36329896     -0.41618470
H      -0.56549236      0.85787761      1.43318244
H      -0.73712439     -1.64440569      1.40582432
H      -2.22284059     -0.86027230      0.86661011
H      -1.14089737     -1.59212145     -0.31279025
H       1.49649140      1.25457247      1.76780413
H       1.08023165     -0.41932017     -1.79381298
H       2.61893074     -0.63642490     -0.93238780
H       1.27275076     -1.75924393     -0.67718163
