12
b3lypvtz=-166560.24858369
C       2.78522158     -0.28577640      0.00010338
N       1.72272912      0.39167876     -0.00041697
C       0.44922117     -0.32379311     -0.00024725
C      -0.69699428      0.69719407      0.00011576
C      -2.00911396      0.05995255      0.00017405
N      -3.03384317     -0.46302808     -0.00006818
H       2.81423871     -1.38234834      0.00084106
H       3.74189170      0.23137746      0.00004393
H       0.36852961     -0.96576655     -0.88144584
H       0.36882756     -0.96613595      0.88071486
H      -0.61285946      1.34189500     -0.87648611
H      -0.61257257      1.34162559      0.87688731
