16
b3lypvtz=-147169.61628907
C      -2.76333181      0.77254709     -0.00430950
C      -1.91545573     -0.46022947      0.17180195
C      -0.65532519     -0.55830748     -0.14699693
C       0.60606178     -0.65746716     -0.46018600
C       1.76142194     -0.33995915      0.45878403
C       2.65381129      0.78383277     -0.07997179
H      -3.61633992      0.56685411     -0.65610297
H      -3.16721016      1.10712957      0.95472845
H      -2.18904373      1.58935788     -0.43858215
H      -2.40807251     -1.33194741      0.59696113
H       0.86657251     -0.98571917     -1.46500765
H       1.37664987     -0.07405863      1.44424648
H       2.36613277     -1.24350800      0.58928107
H       2.09340442      1.71494060     -0.17617070
H       3.49969971      0.96344304      0.58583836
H       3.05253875      0.53279641     -1.06508279
