16
b3lypvtz=-147177.02747716
C      -2.13842122     -0.84198374     -0.24887113
C      -1.04245400     -0.57428733      0.45771609
C      -0.08368749      0.51632974      0.19921814
C      -0.47490562      1.72161899     -0.22166235
C       1.37065934      0.19911724      0.46483593
C       1.95355874     -0.84627782     -0.49542326
H      -2.79860025     -1.65417647      0.02478779
H      -2.40486177     -0.26614715     -1.12621549
H      -0.79690600     -1.22227073      1.29590867
H       0.24209624      2.50910421     -0.41601219
H      -1.51976055      1.96139320     -0.36720606
H       1.46784100     -0.16949634      1.49207159
H       1.95617145      1.11808901      0.40688262
H       1.40209014     -1.78619423     -0.44485473
H       2.99676312     -1.05563867     -0.25344427
H       1.90912287     -0.49193592     -1.52650334
