15
b3lypvtz=-178133.2873494
C      -2.91280243      0.07145980     -0.14746329
N      -1.62046169     -0.57973164     -0.29563678
C      -0.47006575      0.17689191     -0.16566177
N       0.59997406     -0.29473595      0.33294732
N       1.72433306      0.53625057      0.35794034
C       2.95502797     -0.23555697      0.45051496
H      -3.69902419     -0.60628786     -0.47773563
H      -3.13414541      0.38862436      0.87929352
H      -2.94880123      0.95413110     -0.78728869
H      -1.54057442     -1.47200736      0.17173253
H      -0.54829005      1.19168595     -0.56850424
H       1.75132609      1.15363491     -0.44917720
H       2.94675290     -0.80611255      1.37822601
H       3.79552404      0.45871145      0.48083910
H       3.10122704     -0.93695774     -0.38115922
