15
b3lypvtz=-157250.26199892
C      -2.07394992     -0.02613804      0.32329252
C      -0.74037067     -0.01598898     -0.42554626
C       0.11516581      1.19493869     -0.15705385
C       1.35821739      0.85225204      0.15194967
C       1.52417052     -0.64048513      0.12755204
N       0.13891120     -1.12311570      0.00587853
H      -2.70690501      0.80747332      0.00916447
H      -2.61648252     -0.95248838      0.12653149
H      -1.90162070      0.04488932      1.39761086
H      -0.96095871     -0.06672154     -1.50513265
H      -0.26788116      2.20368420     -0.22665404
H       2.16851882      1.53011421      0.38115083
H       2.16826598     -0.94538173     -0.71199727
H       1.99813245     -1.02118399      1.03909549
H       0.06234951     -1.92936830     -0.59611383
