10
b3lypvtz=-214792.16327284
O       0.69899834     -0.06377014      0.00711060
C       0.22197632      1.18163260      0.15758647
C       0.74740339      2.40392531      0.09675177
O      -0.24424466      3.34072271      0.44329327
C      -1.44251940      2.60700353      0.27694518
O      -1.10904119      1.22297883      0.47116643
H       1.66103218     -0.04373847      0.04163348
H       1.74331040      2.76083295     -0.08184761
H      -2.17576261      2.90937173      1.02028569
H      -1.82355277      2.72914094     -0.74762529
