12
b3lypvtz=-166539.8252399205
C       0.06244851     -1.04249107      0.05103028
C      -1.32516821     -0.48303694      0.05610610
N      -1.19955340      0.83276157     -0.01356629
C       0.06792714      1.32259617     -0.06868662
C       0.97068370      0.21486260     -0.03386039
N       2.25475619      0.27811801     -0.06729566
H       0.28191009     -1.61778558      0.95486018
H       0.24003437     -1.70556554     -0.80035425
H      -2.28198344     -0.96850280      0.10387285
H      -2.00240692      1.44582842     -0.02540372
H       0.26528581      2.37597715     -0.12696467
H       2.66606617     -0.65276198     -0.02973782
