12
b3lypvtz=-168925.23092491
C       1.92390612     -0.96009745      0.27776312
C       1.10380124      0.04851406     -0.50139549
C       0.71018666      1.37852070      0.08425679
C      -0.24942538      0.51154427     -0.03871210
C      -1.65845100      0.20794983      0.16478218
O      -2.16969321     -0.85782751     -0.09047262
H       1.72431032     -0.88715361      1.34790824
H       2.99335994     -0.80197373      0.11969530
H       1.68858864     -1.97768118     -0.04025826
H       1.27500448      0.01427131     -1.57684424
H       1.04297050      2.35216065      0.40079917
H      -2.25103032      1.04523066      0.58147591
