18
b3lypvtz=-168846.78247662
C      -0.99914682      1.26839800      0.71851475
C      -0.70661696      0.29487593     -0.42108926
N      -1.78993302     -0.69661297     -0.47415231
C       0.70653850     -0.33784175     -0.35742924
C       1.82526799      0.69855043     -0.41377377
N       0.85088945     -1.13980116      0.86498452
H      -2.01769914      1.64395212      0.62473571
H      -0.31874777      2.11928272      0.70603926
H      -0.89511713      0.77121437      1.68367487
H      -0.74953659      0.84781234     -1.36574168
H      -1.60674354     -1.40631982     -1.17475744
H      -1.89048853     -1.16509817      0.41923655
H       0.79143197     -0.96057882     -1.26363541
H       1.85472072      1.29171793      0.50046175
H       2.79718542      0.21315504     -0.52889239
H       1.69186383      1.37287343     -1.26135298
H       0.27510513     -1.97170467      0.81420367
H       1.80705449     -1.45805196      0.96776640
