12
b3lypvtz=-194865.1670797
C       2.46587813     -0.10311274     -0.05401141
C       1.27091102     -0.68513946      0.05374400
C      -0.01403313      0.00336859      0.02111879
N      -0.03236020      1.39740933     -0.04871905
C      -1.13450072     -0.73101641     -0.00256294
F      -2.35030048     -0.12843833     -0.02714619
H       3.37450945     -0.68636726     -0.00779259
H       2.57839956      0.96079859     -0.21481690
H       1.21378952     -1.75963547      0.18377398
H      -0.95024345      1.79342249      0.08818994
H       0.65056477      1.84174477      0.54724450
H      -1.18410150     -1.80674011     -0.04183015
