14
b3lypvtz=-193023.11726107
C      -0.10227314      1.41994197     -0.92032021
C      -0.14526680     -0.00455944     -0.44855477
C      -1.26646132     -0.61968269     -0.07819658
O      -2.49575596     -0.01450815     -0.12816194
C       1.14685135     -0.75761676     -0.39611832
O       2.01399783     -0.14559399      0.57013557
H       0.23669012      1.47650405     -1.95995603
H      -1.07953903      1.89302392     -0.85606650
H       0.60638747      1.99435661     -0.32096636
H      -1.25843387     -1.64506634      0.27550606
H      -3.15847293     -0.60876209      0.23088913
H       1.62595847     -0.73681068     -1.38417607
H       0.96358250     -1.80709847     -0.13779866
H       2.91273532     -0.44402794      0.40378468
