11
b3lypvtz=-202301.5700703264
C      -1.26082428     -0.34640362      0.06203653
C      -0.03218156      0.48657621     -0.07764791
C       1.23889227      0.02400987     -0.01037612
N       1.43309338     -1.33390893      0.20615251
O       2.60489236     -1.68729574      0.25635507
O      -0.20601566      1.80613659     -0.28784388
H      -1.86105689      0.01145436      0.90350467
H      -1.87082313     -0.26680515     -0.84234723
H      -0.99958621     -1.38681267      0.22642603
H       2.09953738      0.67461558     -0.11930020
H      -1.14592769      2.01843351     -0.31695947
