9
b3lypvtz=-222446.92608774
C      -0.85686325     -0.01775358     -0.08670524
N      -1.36582181      0.96100253      0.52037040
N       0.52464950     -0.40968587     -0.22853645
N       1.29736014      0.35340819      0.35039431
O       2.58806844     -0.02015155      0.21349965
O      -1.59438903     -0.92129406     -0.75179665
H      -0.65749215      1.53735974      0.96532901
H       2.58147582     -0.83404369     -0.33244830
H      -2.51698767     -0.64884172     -0.65010673
