13
b3lypvtz=-156448.67785782
C      -2.39886978      0.49371753      0.10388357
C      -1.37216092     -0.07988701     -0.14111232
C      -0.16312890     -0.79447679     -0.43830143
N       0.78910284     -1.14752765      0.64709485
C       1.17605050     -0.13346856     -0.33552849
C       1.33391797      1.31282321      0.04874029
H      -3.30660721      1.00008382      0.31848184
H      -0.28155757     -1.58330976     -1.17236641
H       0.48720686     -0.69441593      1.50560297
H       1.92477179     -0.49859436     -1.03143147
H       2.27466903      1.46298012      0.58256598
H       0.51661389      1.64812498      0.68747253
H       1.34918849      1.94865141     -0.83869990
