14
b3lypvtz=-193009.99418681
C      -1.51264294      0.56925916      0.15539214
C      -1.70095962     -0.92110231     -0.04229425
C      -0.36897772     -0.38635291      0.35009059
O       0.63330755     -0.44761950     -0.63402468
C       1.64431779      0.51961284     -0.48505367
O       2.46758032      0.29617828      0.63428901
H      -1.94779419      1.04090916      1.02554587
H      -1.49638058      1.18046400     -0.73620766
H      -2.26906047     -1.47955375      0.68829395
H      -1.79605844     -1.27115255     -1.06040801
H      -0.01236431     -0.56013340      1.35803581
H       1.21636578      1.51426768     -0.33847385
H       2.21174358      0.48344403     -1.41788675
H       2.93092324     -0.53822072      0.50270150
