9
b3lypvtz=-196756.41012704
N      -2.04218803     -0.13004094      0.00091496
C      -0.77543879     -0.01195111      0.00005285
N       0.13984324     -1.05114608     -0.00059213
H      -0.07128054     -2.03265821      0.00190862
N       1.42502728     -0.61541414      0.00080155
N       1.41690627      0.64386771      0.00071331
N       0.11285076      1.05549437     -0.00116471
H      -0.09815639      2.03639817      0.00295749
H      -2.51480680      0.76675922      0.00086307
