14
b3lypvtz=-167291.09784259
C      -1.82330728     -1.46979666      0.12270623
C      -1.08167726     -0.55693356     -0.11481699
C      -0.14078483      0.53900157     -0.36369151
N      -0.76165799      1.81593688      0.00900789
C       1.20699617      0.26036109      0.33713252
N       1.83854681     -0.94319943     -0.19514570
H      -2.49532549     -2.26820516      0.31590411
H       0.05781135      0.56887709     -1.43901645
H      -0.11149842      2.57542007     -0.15849240
H      -0.98837213      1.82186323      0.99710563
H       1.86277668      1.10941093      0.12937973
H       1.02815513      0.24269445      1.42248819
H       2.76262928     -1.06738882      0.19901543
H       1.29566798     -1.76254868      0.05280533
