15
b3lypvtz=-157251.97114647
C       0.73239848      1.25744524     -0.04104509
C      -0.59098944      1.31267942      0.06619579
C      -1.45970559      0.08788198      0.06454371
N      -0.70909568     -1.08677736     -0.37051169
C       0.58363806     -1.20731896      0.29945762
C       1.47889882     -0.04513039     -0.12858060
H       1.31132666      2.17427792     -0.05957691
H      -1.09616042      2.26706764      0.16056627
H      -2.29893416      0.23861272     -0.62095586
H      -1.90179466     -0.03084966      1.07110158
H      -1.26072406     -1.92335826     -0.23577748
H       0.49186479     -1.19880891      1.39879864
H       1.03366094     -2.16049715      0.01847558
H       2.37040620     -0.00955347      0.50464880
H       1.83184708     -0.20439776     -1.15286736
