13
b3lypvtz=-179782.18859108546
C      -1.62294542     -0.30244046     -0.62909510
C      -0.20990943     -0.73416828     -0.24537793
C       0.70117506      0.37159616      0.23278744
C       0.26421416      1.60906152      0.29663218
O      -0.14702865      2.71101075      0.34628596
N       2.00903029     -0.01424034      0.59218846
H      -2.14515872      0.14937991      0.21532534
H      -1.61166227      0.42075043     -1.44557223
H      -2.20391471     -1.16442812     -0.95672137
H      -0.26132906     -1.49174007      0.54580396
H       0.27132418     -1.21717582     -1.10431246
H       2.69032596      0.63898919      0.92023641
H       2.26587860     -0.97659486      0.51554298
