11
b3lypvtz=-197488.67462688
N      -2.33283470      0.42508361      0.19699928
N      -1.72851045     -0.62150999     -0.10887514
N      -0.37830187     -0.51420827     -0.08922534
C       0.34085016      0.68064699     -0.09598220
N       1.61237745      0.74481263     -0.04824377
N       2.28079930     -0.48401713      0.05197252
H      -3.32555019      0.18945396      0.14399099
H       0.08078966     -1.34220055     -0.43667837
H      -0.24308053      1.58524028     -0.16430975
H       3.25469675     -0.28357675      0.22884455
H       1.92372943     -1.04988078      0.81994922
