11
b3lypvtz=-199915.3570191
C       2.28039823     -0.50632989      0.18506459
N       1.21245009      0.15140048      0.35114736
O       0.19228948     -0.33275256     -0.47077703
C      -0.99989341      0.38400899     -0.31962777
N      -1.22758088      1.37254008      0.42405969
N      -1.91273729     -0.16282279     -1.18888062
H       2.36758905     -1.33440488     -0.51304349
H       3.12843760     -0.20151653      0.78324385
H      -0.39383352      1.64817800      0.93101195
H      -2.86139181      0.11690651     -1.00395984
H      -1.78572754     -1.13520741     -1.41573374
