12
b3lypvtz=-187483.20639688
N      -1.06227349     -1.36982132     -0.26478573
C      -0.71994497     -0.16485683     -0.02265119
N      -1.54838367      0.91441518      0.18407140
C       0.76175821      0.16682197     -0.01848559
N       1.26089225      1.32147004     -0.25025586
N       1.54021352     -0.90947026      0.28537106
H      -2.07214488     -1.50354574     -0.24619191
H      -2.52652685      0.72307033      0.32447294
H      -1.18432651      1.68010662      0.72734361
H       0.53959469      1.99582635     -0.48290393
H       2.51832488     -0.82629149      0.06516461
H       1.10126682     -1.80926986      0.16943158
