14
b3lypvtz=-169735.18214556
C       0.89275696      1.58620037      0.00011497
C       0.69389834      0.26635469      0.00015862
C       1.81867935     -0.72871081     -0.00004209
C      -0.68735925     -0.31647406      0.00026095
C      -1.89555207      0.59996992     -0.00001756
O      -0.82957901     -1.52371184     -0.00000796
H       0.07667912      2.29460124      0.00028112
H       1.89173614      2.00359118     -0.00008453
H       1.75709395     -1.38143763      0.87208957
H       1.75672688     -1.38149214     -0.87210411
H       2.78508745     -0.22677383     -0.00025028
H      -1.89922249      1.24531392     -0.88006373
H      -2.79246638     -0.01352525     -0.00009881
H      -1.89959699      1.24568021      0.87975784
