14
b3lypvtz=-167323.78437183
C      -2.80315290     -0.52822490      0.00878701
C      -1.76737365      0.31192809      0.01007148
N      -0.44473978     -0.10908871      0.00202458
C       0.46664238      0.79048170      0.00219510
N       1.78665699      0.49418601     -0.03031218
C       2.27981700     -0.86923820      0.01102294
H      -2.64826693     -1.59857972     -0.00098326
H      -3.81723956     -0.15614259      0.01701305
H      -1.95193819      1.39056759      0.01916789
H       0.25130810      1.86522249      0.01557266
H       2.43850424      1.24931468      0.07087522
H       3.36286150     -0.85515327     -0.09086878
H       2.01235986     -1.36462162      0.94712962
H       1.85089293     -1.45085856     -0.80445032
