15
b3lypvtz=-180492.73741022052
C       2.20204413     -0.90652601     -0.22931522
C       1.42108605      0.19636901     -0.04630777
C       0.03223361      0.27821766      0.07459687
N      -0.60391302      1.58601045      0.26965032
H      -1.61104163      1.38169273      0.33045703
H      -0.47047103      2.25735277     -0.49860056
H      -0.33600725      2.07942910      1.13194167
C      -0.91880693     -0.87130577      0.02761053
O      -2.25698538     -0.34315718      0.19699736
H       3.27482741     -0.81525297     -0.30558340
H       1.78636511     -1.90324050     -0.30458274
H       1.94884691      1.15085897      0.01499804
H      -0.71617941     -1.60952551      0.82215613
H      -0.86230578     -1.41746978     -0.92937205
H      -2.88969279     -1.06345295      0.17063116
