16
b3lypvtz=-168063.59700115
C      -2.07170272     -0.22363430      0.28053740
N      -0.92509023     -0.32218813     -0.62044574
C       0.33321105      0.13681710     -0.08143773
C       0.50710794      1.62507372      0.13235493
C       1.04815171     -0.83885983      0.77333882
N       1.52636745     -0.54978427     -0.59456927
H      -2.29072851      0.79292788      0.63440984
H      -2.95836364     -0.60111560     -0.22944473
H      -1.89907532     -0.85131573      1.15555664
H      -1.12261953      0.17499649     -1.48203782
H       0.39060388      2.15880203     -0.81476467
H      -0.23044418      2.01514335      0.83644733
H       1.50124486      1.84469070      0.51854478
H       0.56481274     -1.79093470      0.95248614
H       1.69515890     -0.49026997      1.56870187
H       1.21482159     -1.29911476     -1.20546080
