8
b3lypvtz=-211620.8934187598
C      -0.98228060     -0.24595287     -0.27318082
N      -1.13194744      0.89257331      0.31593086
N      -1.38421168      1.88482804      0.81192190
O       0.22416119     -0.90673913     -0.45525697
C       1.39292993     -0.40137140     -0.01511711
O       1.53661047      0.63619510      0.56361492
H      -1.84201674     -0.75185192     -0.66724965
H       2.18675488     -1.10768114     -0.28066311
