13
b3lypvtz=-179800.82616839
C      -0.98283219     -0.94410510     -0.08615256
N       0.16866529     -1.44354955      0.03576878
C       1.31082650     -0.54015941      0.16191725
C       1.00655431      0.87651066     -0.32434821
C      -0.33095181      1.31131132      0.24956227
O      -1.36319043      0.36016810     -0.07341335
H      -1.85210346     -1.57885133     -0.22922686
H       2.14033355     -0.97313073     -0.39985068
H       1.62599257     -0.52837288      1.21020240
H       1.78766182      1.57846060     -0.02564848
H       0.95209303      0.89100499     -1.41543580
H      -0.27775535      1.39627644      1.33903862
H      -0.67173084      2.26290989     -0.15385939
