11
b3lypvtz=-155730.69304514
C       1.87587580     -0.84930666     -0.00000006
C       1.28171349      0.34216198      0.00000010
C      -0.16646558      0.56686788     -0.00000000
C      -0.71651927      1.79003285      0.00000016
C      -1.02216957     -0.58742357     -0.00000021
N      -1.68747958     -1.52798722     -0.00000043
H       1.30872695     -1.77116869     -0.00000023
H       2.95348788     -0.93210628     -0.00000007
H       1.87965819      1.24657865      0.00000029
H      -0.09074454      2.67207884      0.00000026
H      -1.78689875      1.93170221      0.00000017
