10
b3lypvtz=-186682.9803494354
C       0.90270757     -0.19405810     -0.20802072
N      -0.20684188      0.34499541      0.11751861
C      -1.38531540     -0.33397232     -0.11009586
N      -2.50907434      0.22526539      0.22444358
N      -3.50064627      0.70582966      0.51370831
N       2.10006715      0.42667452     -0.00749498
H       0.98696326     -1.18326263     -0.66787193
H      -1.46942596     -1.31932798     -0.55440779
H       2.12118644      1.33952899      0.41073672
H       2.96037943     -0.01167294     -0.27008912
