16
b3lypvtz=-168070.27036988
C       2.39297948     -0.83932192     -0.11993290
N       1.64273187     -0.05171547      0.51735185
C       0.88285904      0.93610083     -0.23306139
C      -0.59595968      0.87052022      0.13534737
N      -1.17798064     -0.40377158     -0.25750567
C      -2.59890231     -0.50902495      0.04181687
H       2.97091834     -1.58443103      0.42328650
H       2.50457359     -0.81714797     -1.21120282
H       1.00118378      0.81108442     -1.31794641
H       1.26306586      1.92243704      0.04697575
H      -1.12131941      1.66678538     -0.39963309
H      -0.70375591      1.07781042      1.21213122
H      -0.67575121     -1.14969090      0.20902003
H      -2.85105305     -0.32055191      1.09744143
H      -3.15502235      0.21122678     -0.56256531
H      -2.95622941     -1.50501636     -0.22134043
