13
b3lypvtz=-203100.51796255
N       2.66663176     -0.10898119     -0.19511248
C       1.34383723      0.27401279     -0.05578364
C       0.33599394     -0.49686383      0.36404386
C      -1.09603550     -0.06546369      0.39071476
O      -1.19368618      1.26530108     -0.07965090
O      -1.93199536     -0.93521757     -0.36078254
H       3.34839427      0.62737140     -0.12015910
H       2.94455950     -0.94836927      0.28889070
H       1.13722487      1.28719175     -0.37529677
H       0.51281984     -1.51261606      0.70070957
H      -1.51022004     -0.13446682      1.40299844
H      -2.12974989      1.48871583     -0.09519509
H      -1.51203245     -1.05550644     -1.22161283
