14
b3lypvtz=-213934.69576725762
C       1.82890420     -0.04083710     -0.32046563
O       0.62935695     -0.78368020     -0.13311777
C      -0.52383152     -0.04807437      0.25407730
N      -0.90948154      0.81111465     -0.85210104
N      -1.54994516     -0.98456931      0.63703441
O      -0.28235889      0.75044106      1.38157583
H       1.71532642      0.73152602     -1.08514815
H       2.15535116      0.42106062      0.61406894
H       2.58223324     -0.75656451     -0.64338496
H      -0.84102154      0.30008338     -1.72392537
H      -1.87547392      1.08968319     -0.72647886
H      -1.32849517     -1.35425943      1.55503028
H      -1.54541140     -1.76317514     -0.01191016
H      -0.05515284      1.62725115      1.05474517
