12
b3lypvtz=-168964.15406372835
C      -0.93543489      0.13044313      0.95590505
C      -0.21136125     -0.04754717     -0.35193714
C      -0.86538805     -0.20416377     -1.50790588
C       1.25138605     -0.04280433     -0.31102831
C       1.96880781      0.10477615      0.78404699
O       2.61592855      0.23351430      1.73940046
H      -0.67218727     -0.66126070      1.66264408
H      -0.67197328      1.08204069      1.42547540
H      -2.01367655      0.11097917      0.81084088
H      -1.94586723     -0.20776457     -1.53825036
H      -0.34452095     -0.33198875     -2.44750054
H       1.82428707     -0.16622414     -1.22169062
