14
b3lypvtz=-193029.03192064
C       2.84426776     -0.02462039     -0.15771409
C       1.46053710      0.04787932      0.40611082
C       0.33901886     -0.10817134     -0.28509742
C      -1.03297695      0.00266982      0.30485203
O      -1.70169847      1.19470905     -0.07394069
O      -1.76115477     -1.13508162     -0.11378776
H       2.83270432     -0.23358020     -1.22755044
H       3.38130726      0.91456414      0.00176758
H       3.42827199     -0.80544942      0.33696128
H       1.38859728      0.24673679      1.47255170
H       0.36782995     -0.32325109     -1.35061129
H      -0.98263474      0.06014682      1.39571986
H      -1.69671476      1.24340543     -1.03760864
H      -2.65388981     -1.05306031      0.24020704
