13
b3lypvtz=-179770.79866035
C      -3.09385317     -0.12667438     -0.00000240
C      -1.70352972      0.41852596     -0.00000168
C      -0.58819661     -0.31781082     -0.00000316
C       0.74040786      0.25504063     -0.00000226
N       1.76604386     -0.50541807     -0.00000333
O       2.95101652      0.24380249     -0.00000367
H      -3.09901481     -1.21664376     -0.00000415
H      -3.65080732      0.21859487     -0.87587968
H      -3.65080738      0.21859206      0.87587595
H      -1.61005282      1.50149951      0.00000008
H      -0.64173322     -1.40120322     -0.00000533
H       0.85710006      1.33884442      0.00000021
H       3.63222374     -0.43609569     -0.00000457
