15
b3lypvtz=-180534.24489660916
C       1.70966020      0.07380289      0.46955651
C       0.67002462     -0.04599031     -0.64322453
N      -0.71664834     -0.02608125     -0.14034251
C      -1.28266705     -1.30948529      0.24816833
C      -1.47423474      1.05406812     -0.00392177
O      -0.76660907      2.15119346     -0.38899724
H       2.71667149      0.02243213      0.05161113
H       1.61044577     -0.72986830      1.20066847
H       1.60381834      1.02498271      0.98986457
H       0.80515743     -0.97976689     -1.19222946
H       0.78134320      0.77370456     -1.34857065
H      -1.32026258     -1.98801592     -0.60801506
H      -0.68406453     -1.77881248      1.03255971
H      -2.28842560     -1.13743432      0.61954441
H      -1.36420915      2.89527087     -0.28667191
