15
b3lypvtz=-157221.22471965
C       2.01399725      0.08931455      0.07427193
C       0.59459549      0.12517344     -0.45685557
C      -0.39043091     -0.84518143      0.20233793
C      -1.78807954     -0.57540634     -0.28487746
C      -1.15757699      0.36645250      0.69908628
N      -0.18977730      1.28319981      0.09220737
H       2.01494048      0.13071285      1.16429524
H       2.58160768      0.94442316     -0.29643794
H       2.52359538     -0.82446652     -0.24212811
H       0.60123750      0.07491130     -1.55130767
H      -0.12003593     -1.74634513      0.73296091
H      -2.55192188     -1.22901414      0.11737860
H      -1.95708074     -0.25764374     -1.30901688
H      -1.58366519      0.57111440      1.67226854
H      -0.59140529      1.89275531     -0.61418316
