14
b3lypvtz=-167311.962068237
C      -2.31255404     -0.15646438     -0.03133120
N      -1.06241797      0.01157549      0.68557718
C       0.13699682      0.01613274      0.06056003
N       0.40634818     -0.11708538     -1.19989574
C       1.86557538      0.01493316     -0.90337257
C       1.52742317      0.17407341      0.60892319
H      -2.96537814      0.71040145      0.09419911
H      -2.84729080     -1.04951308      0.30027630
H      -2.07750159     -0.26448070     -1.08760158
H      -1.07618956      0.12953411      1.68201590
H       2.44215597     -0.87569495     -1.16033392
H       2.32579118      0.88693145     -1.37188618
H       1.76003556      1.14175001      1.05536468
H       1.87700583     -0.62209333      1.26750477
