14
b3lypvtz=-193025.80597601
C      -2.11111818     -0.07101447      0.16481787
C      -0.70786396     -0.03177168     -0.39680460
C       0.13148049      1.19867501     -0.01774870
O       1.45712553      0.69248389      0.15676959
C       1.40132248     -0.71273000     -0.03916428
O       0.06735081     -1.10353544      0.15175335
H      -2.60822029     -1.00138414     -0.10912818
H      -2.70171228      0.75834486     -0.22840786
H      -2.08628155      0.00253246      1.25260364
H      -0.73366774     -0.13713875     -1.49002302
H      -0.20920051      1.64147096      0.92249640
H       0.12392537      1.96475007     -0.79616114
H       1.73717147     -0.95666334     -1.05881287
H       2.02923336     -1.21297843      0.69809280
