16
b3lypvtz=-168085.12598524
C       2.24626513     -0.80392664     -0.03541951
C       0.74751745     -0.75557876      0.05220321
C       0.00597077      0.36605127      0.02490473
N       0.52757101      1.67101182      0.07557585
N      -1.38874245      0.40312990     -0.05147609
C      -2.15372422     -0.82680699     -0.03579289
H       2.66064349      0.05992170     -0.56310388
H       2.57517149     -1.69003490     -0.58315525
H       2.73329509     -0.84470117      0.94579769
H       0.23599629     -1.70074360      0.16105392
H       1.53449010      1.70525641      0.07945225
H       0.14827851      2.27122602     -0.64506988
H      -1.77230467      1.12515272      0.54162008
H      -2.00200608     -1.43014987      0.86909196
H      -3.21233994     -0.58179128     -0.11294624
H      -1.88554797     -1.44072162     -0.89646695
