15
b3lypvtz=-180534.84993497
N      -2.31116308      0.36345907     -0.01291480
C      -1.22151781     -0.57712807     -0.28667355
C       0.01378522     -0.20404480      0.51474748
C       0.73686042      1.07986885      0.06929897
O       1.87991141      0.32165731     -0.40254231
C       1.32062361     -0.91029875      0.10485102
H      -3.09211165      0.20097303     -0.63669805
H      -2.66096636      0.23748929      0.93025781
H      -0.98373727     -0.51251508     -1.35189676
H      -1.47718907     -1.62805008     -0.08325179
H      -0.20569364     -0.24937124      1.58273503
H       0.25062565      1.63906954     -0.73215915
H       1.01667467      1.76713533      0.87185188
H       1.22901588     -1.67053589     -0.67674608
H       1.91508903     -1.31558650      0.92860831
