12
b3lypvtz=-187448.96962431
N      -2.29128197     -0.09938558     -0.04395881
N      -1.22526356     -0.76879605      0.01923388
C      -0.06790902     -0.00735098      0.02780240
N      -0.10093192      1.39946417     -0.05485943
C       1.09801976     -0.69809674      0.03646811
N       2.32755054     -0.09788618      0.00676161
H      -3.06109083     -0.77489850     -0.05522574
H      -1.06937598      1.69189201     -0.14354430
H       0.30049638      1.84331012      0.76297432
H       1.06181671     -1.77377137      0.11805131
H       3.11346768     -0.66761114     -0.25506523
H       2.34492920      0.83957924     -0.36931012
