11
b3lypvtz=-176603.92805556
C       2.59455296      0.45435727      0.00002220
N       1.68484177     -0.43318958      0.00000255
N       0.39911245      0.12836804      0.00001200
C      -0.52144988     -0.75298119     -0.00000487
C      -1.94734667     -0.34975081      0.00000985
N      -2.39400075      0.83735053     -0.00000770
H       3.62591938      0.12185034     -0.00003299
H       2.36971748      1.51996065     -0.00001561
H      -0.27593496     -1.81528180     -0.00000048
H      -2.66462055     -1.17095034      0.00000732
H      -1.61164224      1.49848389     -0.00001928
