13
b3lypvtz=-200693.44038447
C      -2.19017663     -0.66024382      0.04103800
N      -1.29751494      0.47400111     -0.10832659
C       0.05018279      0.32133502     -0.02210153
O       0.72064668      1.48374413      0.02295006
N       0.60905265     -0.84397581     -0.00865330
N       2.05645456     -0.66808151      0.01942903
H      -1.93026264     -1.42916306     -0.68377881
H      -2.13864302     -1.10905307      1.03747860
H      -3.20888734     -0.32717823     -0.14923054
H      -1.63369122      1.38199299      0.16233614
H       1.65669982      1.17522103      0.05670048
H       2.42031852     -1.14651207     -0.79897962
H       2.39098277     -1.20219973      0.81485807
