15
b3lypvtz=-157183.55141654843
C       2.44640658      0.48877172      0.42870177
C       1.53400860     -0.52289297      0.31338287
C       0.15431234     -0.41022867      0.23920178
N      -0.51477282      0.90884536      0.27920774
H      -0.29829565      1.55701064     -0.49366710
H      -0.39741986      1.45707566      1.14516082
C      -1.84048064      0.17901507      0.15449152
C      -1.12045552     -1.18818342      0.11474578
H       3.50439579      0.28435302      0.47824151
H       2.15335813      1.53253468      0.47527238
H       1.91041989     -1.54250071      0.27327954
H      -2.46804877      0.37209329      1.02152894
H      -2.36038161      0.48017036     -0.75204610
H      -1.40476141     -1.85161475      0.94429692
H      -1.29828506     -1.74444928     -0.81696440
