15
b3lypvtz=-178149.47076853
N       0.49705646      1.66036181     -0.18000798
C       0.01798375      0.51140687      0.05987184
C      -1.47128255      0.39361767      0.32532809
N      -2.07875855     -0.76865891     -0.34088139
C       0.81885995     -0.78271016      0.14304748
N       2.25754430     -0.70840654     -0.04069458
H       1.51149999      1.60490109     -0.30323524
H      -1.93202262      1.30606449     -0.04751676
H      -1.61716250      0.38673465      1.41558903
H      -2.06640358     -1.58707485      0.25445895
H      -3.04931578     -0.58082446     -0.55293764
H       0.61559225     -1.24288545      1.11701254
H       0.40310563     -1.47129305     -0.59557732
H       2.50110496     -0.39912260     -0.97319018
H       2.69188129     -0.07558753      0.61990016
