10
b3lypvtz=-245705.09363474
C       1.31321810      0.46105170     -0.03776903
C       0.20171517     -0.44539426      0.24720323
O       0.75558436      0.36832084      1.27672742
C      -1.19206507     -0.08239907     -0.17313739
F      -2.10129811     -0.68672313      0.64545811
F      -1.42233968     -0.54383133     -1.44069077
H       2.31029004      0.05091786     -0.15116327
H       1.12734002      1.39675249     -0.55512519
H       0.37971422     -1.51289480      0.33844701
H      -1.37215905      0.99419970     -0.14995012
