11
b3lypvtz=-202356.89639465
N      -1.39586412      1.20487295      0.02816197
C      -1.11644382     -0.14976481      0.02253067
O      -1.99269282     -0.97944849     -0.14631023
C       0.29915300     -0.54085356      0.18187755
C       1.33427529      0.24936082     -0.10487787
O       2.61667714     -0.17722686      0.01547573
H      -0.81882482      1.81483142      0.58194257
H      -2.37994434      1.42297211      0.02619793
H       0.46559236     -1.56998892      0.46842203
H       1.20140978      1.26265632     -0.46932283
H       3.22119535      0.49998800     -0.30040553
