15
b3lypvtz=-157230.42688881
C       2.47640119      0.28254717      0.02088639
C       1.29436840     -0.63921510      0.00477633
C       0.02954626     -0.25596766     -0.04862263
C      -0.69999316      1.07485341     -0.05932329
N      -1.96838338      0.34258070      0.22578427
C      -1.30802679     -0.96942712     -0.03928551
H       2.17353875      1.32964888      0.00044043
H       3.08798176      0.12544490      0.91376884
H       3.12789220      0.10518068     -0.83963276
H       1.50800200     -1.70433448      0.04015753
H      -0.42664239      1.80066287      0.71068510
H      -0.67272639      1.57838679     -1.03358104
H      -2.72223188      0.56080300     -0.41248920
H      -1.56516299     -1.42038968     -1.00540833
H      -1.47021058     -1.71362136      0.74418688
