13
b3lypvtz=-179788.86200374
C       0.52691087      1.27807579      0.06555795
C      -0.79310100      1.14202163     -0.07855162
O      -1.43313416     -0.07549074     -0.13530657
C      -0.61635599     -1.16690961      0.28922816
C       0.79363022     -1.06916401     -0.28471061
N       1.38928144      0.17439561      0.18811396
H       0.97049417      2.25952790      0.13824921
H      -1.47208755      1.97709810     -0.14398585
H      -0.56860631     -1.17718915      1.38243860
H      -1.11375085     -2.07299225     -0.05310511
H       0.72832259     -1.11350406     -1.38006347
H       1.38912333     -1.91797868      0.05693816
H       2.31400723      0.34466847     -0.17684183
