13
b3lypvtz=-179789.40043824
C       2.05654959      0.80345461     -0.26405591
C       1.13448434      0.00955430      0.27169330
C      -0.32095746      0.12157253      0.03198038
N      -0.96712396      1.16169462     -0.31227546
C      -1.12679521     -1.14424110      0.22738330
O      -2.48698202     -0.96445053     -0.04507414
H       3.10862350      0.66510173     -0.05653984
H       1.79660146      1.61004968     -0.93921086
H       1.44587717     -0.81341619      0.90733963
H      -0.37617845      1.98677798     -0.39287311
H      -0.70557421     -1.93002963     -0.41503364
H      -0.97867660     -1.48135290      1.26419194
H      -2.57984815     -0.02461507     -0.27752558
