11
b3lypvtz=-179023.43113072
C      -2.45476579     -0.59725070     -0.12334132
C      -1.30976236     -0.13513060      0.35183876
O      -0.51356579      0.71245310     -0.37711272
C       0.76791680      0.97305649      0.15536152
C       1.69668360     -0.15898722      0.00221860
N       2.42394839     -1.04239339     -0.11119953
H      -3.06950814     -1.23433438      0.49302826
H      -2.79630487     -0.34890952     -1.11795211
H      -0.94265743     -0.37868688      1.34360378
H       1.16373274      1.82823704     -0.39073861
H       0.71444885      1.24105607      1.21579136
