16
b3lypvtz=-170490.25653947
C       2.07818790      0.98877820     -0.22511145
C       1.16615586      0.07365401      0.10208036
O       1.40964809     -1.27502642      0.09892620
C      -0.24465064      0.36634893      0.51431300
C      -1.29771850     -0.18246886     -0.46141400
C      -2.72601985      0.09151784      0.00583448
H       1.83403940      2.03934038     -0.20328381
H       3.08461479      0.71489518     -0.51760393
H       2.31636723     -1.43350405     -0.18580984
H      -0.41178276     -0.07560891      1.50226573
H      -0.36235387      1.44568560      0.62027832
H      -1.13727701      0.26659177     -1.44523366
H      -1.14581058     -1.25635144     -0.58147405
H      -3.45604091     -0.30363934     -0.70231306
H      -2.92005471     -0.37256735      0.97549218
H      -2.91206345      1.16303047      0.10979254
