10
b3lypvtz=-189065.17814952
C       2.62798864     -0.29470168     -0.31870417
C       1.44004247     -0.19086920     -0.16626245
C       0.04143822      0.02086931     -0.02747660
N      -0.70904201     -0.82918427      0.55383610
N      -2.05070573     -0.56557153      0.58267132
O      -0.47744332      1.19065388     -0.54113099
H       3.67552438     -0.41233171     -0.44310782
H      -2.30362482      0.41546445      0.53797656
H      -2.48247606     -1.05457487      1.35019656
H       0.23829824      1.72024563     -0.90700577
