9
b3lypvtz=-206553.4280306
C      -2.20170012     -0.70891257      0.00026168
C      -1.17563078     -0.08533577     -0.00001448
C       0.05097344      0.68159290     -0.00034911
O       0.06732543      1.89165381     -0.00051064
C       1.36425080     -0.09008017     -0.00049970
F       1.18093908     -1.45858439     -0.00036162
H      -3.11141726     -1.25803742      0.00050111
H       1.93044568      0.19537467     -0.88974408
H       1.93073174      0.19551294      0.88851884
