12
b3lypvtz=-194865.80985648
C      -1.68307366     -0.74598208      0.13641439
C      -0.56017501     -0.01513931      0.04951637
C       0.73144003     -0.65720288     -0.19096412
C       1.90600748     -0.05773639     -0.04028075
F       3.05972272     -0.70761421     -0.28751301
N      -0.53159935      1.37271171      0.25276740
H      -1.64745036     -1.82264721      0.07388735
H      -2.64785847     -0.28625227      0.30327409
H       0.71761630     -1.69314886     -0.50297452
H       2.07136188      0.95356444      0.30229378
H       0.03333963      1.87281549     -0.41945641
H      -1.44933120      1.78663157      0.32303548
