12
b3lypvtz=-168888.0525448
C       0.92202380      1.31014475     -0.09914971
C      -0.44274205      0.81836110     -0.62066499
C       0.09064278     -0.62781625     -0.84921505
C       0.85367735     -0.14015291      0.41896381
C      -0.68587780     -0.05726717      0.64520318
O      -0.98668136     -1.27620392     -0.10358738
H       0.90061878      2.09824400      0.65405095
H       1.68262665      1.52382156     -0.85058440
H      -1.19856415      1.33238270     -1.20976845
H       0.46533495     -1.10137289     -1.75331811
H       1.56676924     -0.71218106      1.00786665
H      -1.25032819      0.15934008      1.54880348
