14
b3lypvtz=-190628.57710892
C      -1.19529621     -1.26486323      0.34785907
N      -0.56526335     -0.08293110     -0.24134881
C      -1.43250654      1.08220656     -0.25996130
C       0.79354218      0.14676936      0.00469318
N       1.36718382      1.21981444      0.35562616
O       1.57869646     -0.94589372     -0.22094096
H      -2.04144309     -1.57757845     -0.26541291
H      -1.56184425     -1.06219236      1.36262235
H      -0.48854055     -2.08744308      0.40982381
H      -0.98926766      1.86547940     -0.87204905
H      -1.62841645      1.48561110      0.74342853
H      -2.38860290      0.80145668     -0.70158800
H       0.69809031      1.93392770      0.62041757
H       1.14371822     -1.51316630     -0.86691866
