12
b3lypvtz=-189866.70546963
C      -2.76794168     -0.27629658      0.00039720
N      -1.31546476     -0.39554812      0.00064631
C      -0.63695120      0.67067504     -0.00054210
N       0.76813689      0.73385097     -0.00017157
C       1.43125168     -0.34806640     -0.00008763
O       2.76646016     -0.34853134      0.00037852
H      -3.21265470     -1.26981009     -0.00085565
H      -3.13100276      0.25605165     -0.88415679
H      -3.13117646      0.25370311      0.88627549
H      -1.09119773      1.66695927     -0.00167218
H       1.01448222     -1.35186422     -0.00049738
H       3.05208134      0.57902372      0.00069178
