14
b3lypvtz=-190659.54678479
C      -2.62229477     -0.22045659      0.00952279
C      -1.27865862      0.49086278      0.08510515
N      -0.19097542     -0.45124834     -0.13199738
C       1.15185628     -0.17600918     -0.02277518
N       1.48012153      1.16740221      0.02475766
O       1.99333217     -1.05543292      0.05154596
H      -2.70279927     -0.98562656      0.78409403
H      -3.43727710      0.48814904      0.15508695
H      -2.75588266     -0.69976150     -0.96127059
H      -1.24891030      1.27135676     -0.68290220
H      -1.17572534      0.99055316      1.05470176
H      -0.39159658     -1.43008224     -0.00681129
H       2.46181660      1.34157831     -0.11064613
H       0.86064549      1.84536209     -0.38569553
