14
b3lypvtz=-190646.6927866
C      -2.59855520     -0.07077815      0.10738508
N      -1.24191729      0.34409792     -0.23783870
C      -0.22545531     -0.65424700      0.07596570
C       1.20563464     -0.11713342      0.03158352
N       1.30196316      1.23429895      0.08921020
O       2.16114129     -0.86799058     -0.03173418
H      -2.67924431     -0.18144906      1.18999620
H      -3.30452720      0.69986091     -0.20201187
H      -2.90373928     -1.02227062     -0.35092251
H      -1.20033010      0.56425629     -1.22612000
H      -0.25167084     -1.54601369     -0.56218227
H      -0.39096336     -1.00155817      1.09973311
H       2.21219544      1.65661896      0.14380220
H       0.46445236      1.77853567      0.21360852
