16
b3lypvtz=-168069.95381645
C      -2.15001452     -0.18290726     -0.33476646
C      -0.96429399     -0.41683994      0.60245576
C       0.34770032      0.14067690      0.08382921
N       0.31639273      1.56570008     -0.09953408
C       1.17922289     -0.67927139     -0.81722638
N       1.61036680     -0.44821296      0.58266092
H      -2.28614949      0.88022607     -0.52686744
H      -3.07078877     -0.57822354      0.09718132
H      -1.99173537     -0.67529543     -1.29598288
H      -0.83923634     -1.48744521      0.78430747
H      -1.17146634      0.03785347      1.57796960
H       0.18333913      2.02519258      0.79628557
H       1.20451205      1.89080792     -0.46202040
H       0.82017850     -1.66285383     -1.09853958
H       1.79846762     -0.20104312     -1.56745382
H       1.42927978     -1.27473033      1.14447519
