10
b3lypvtz=-189050.34271486
N       2.78088497     -0.40993008      0.00000558
C       1.75904286      0.34923338      0.00002179
C       0.36536490     -0.08142171     -0.00002484
C      -0.66568235      0.77093797      0.00001733
N      -2.05757025      0.36878422     -0.00010918
O      -2.24644489     -0.82671993      0.00010173
H       2.50605213     -1.39529909     -0.00005642
H       1.93356360      1.42611814      0.00008355
H       0.15543173     -1.14699992     -0.00010175
H      -0.54723571      1.84610402      0.00006021
