15
b3lypvtz=-180553.17237074
C      -2.26057936     -0.77317584     -0.02058135
C      -0.76127791     -0.73757538      0.02788390
C      -0.01041514      0.36673086      0.02107329
N      -0.50351763      1.68141300      0.06361692
C       1.49562233      0.33525654      0.07684370
O       1.99087071     -0.97850510     -0.12227432
H      -2.68668717      0.09464540     -0.53244062
H      -2.61011386     -1.65895872     -0.55391014
H      -2.70989034     -0.80760346      0.97796934
H      -0.23821674     -1.68026806      0.09191537
H      -1.49664815      1.75851762     -0.09338661
H       0.00005119      2.33121570     -0.52462291
H       1.88914143      1.01592819     -0.69491939
H       1.81534129      0.73740586      1.04636039
H       2.89808637     -1.01016260      0.19063644
