13
b3lypvtz=-179693.00618537
C       0.94624068      1.26068678     -0.43860672
C      -0.39040747      0.56076734     -0.01548446
C       0.36991242     -0.66868860      0.05500753
N       1.63865784      0.16125468      0.40142775
C      -1.01374001     -1.31298633      0.39961477
O      -1.61772820     -0.20864172     -0.40071872
H       1.13117039      2.28028021     -0.10315467
H       1.22614541      1.13233233     -1.48100968
H      -0.61810497      0.95962880      0.98025772
H       0.59405476     -1.03129240     -0.94777210
H       1.58842765      0.46139795      1.37396099
H      -1.24670735     -2.28578841     -0.02855633
H      -1.32622115     -1.24295065      1.44323392
