11
b3lypvtz=-204950.10214939
C      -2.66347323     -0.23138813      0.00624608
C      -1.43026658      0.27166193     -0.01109957
N      -0.30238188     -0.54700636      0.01229412
C       0.86170839     -0.07122927      0.00461232
N       2.01311292     -0.79207402     -0.05941375
F       1.14730631      1.25959443      0.01228452
H      -3.52396883      0.42128618     -0.01181865
H      -2.82937142     -1.29953518      0.03786893
H      -1.27955746      1.34729935     -0.04398517
H       1.91771488     -1.77725224      0.11770178
H       2.85521387     -0.34888068      0.26556538
