15
b3lypvtz=-178139.34477365
C      -2.98765192     -0.17096194      0.13671027
C      -1.67415729      0.47677535     -0.27860977
N      -0.53521983     -0.32832682      0.15060518
C       0.73274670      0.22184563      0.13008980
N       1.76538231     -0.46771086     -0.13854079
N       3.00547263      0.19596671     -0.05448930
H      -3.10347019     -1.15339663     -0.32654953
H      -3.83410220      0.44214649     -0.17531102
H      -3.02929086     -0.30127560      1.21836520
H      -1.57926352      1.45833943      0.19145778
H      -1.67029428      0.64673095     -1.36406674
H      -0.54066471     -1.27862304     -0.19651919
H       0.77497004      1.27892208      0.41009374
H       3.71637542     -0.51679311      0.03394192
H       3.06211670      0.79277837      0.76757745
