10
b3lypvtz=-165814.47022807
N      -2.24137719     -1.04150012     -0.20418078
C      -1.54055835     -0.17358593      0.07412119
C      -0.65660048      0.93896320      0.40697998
C       0.65664102      0.93898178     -0.40696906
C       1.54060986     -0.17355482     -0.07411226
N       2.24130367     -1.04158424      0.20414526
H      -0.43701836      0.90918998      1.47492166
H      -1.18931409      1.87073423      0.21043212
H       0.43705507      0.90920641     -1.47491149
H       1.18932684      1.87076653     -0.21042161
