11
b3lypvtz=-176630.98438155
N      -2.44284020     -0.57276405     -0.31235312
C      -1.40429430     -0.22886811      0.04564255
C      -0.06836922      0.23672549      0.46572613
N       0.32063028      1.52170743     -0.09542287
C       0.98226328     -0.84456153      0.16179142
N       2.13800443     -0.62735652     -0.28374102
H      -0.09959253      0.33872815      1.55578184
H      -0.19789994      2.27929935      0.32900579
H       0.14697191      1.55003503     -1.09336002
H       0.67032601     -1.86579158      0.38095533
H       2.27290229      0.37835135     -0.42651003
