17
b3lypvtz=-158011.61761834
C      -2.95769721     -0.30158778     -0.18022741
C      -1.77078144     -0.04480255      0.37683024
N      -0.54290381     -0.01265254     -0.25960905
C       0.51633384      0.85703821      0.23598575
C       1.88586178      0.45289003     -0.30862225
C       2.35900102     -0.92175680      0.16022258
H      -3.84166471     -0.38024272      0.43317829
H      -3.07127502     -0.46424844     -1.24490758
H      -1.70174699      0.11931797      1.44746568
H      -0.60391156     -0.04020050     -1.26801761
H       0.32433792      1.91197897     -0.00651058
H       0.51841056      0.78205205      1.32676164
H       1.85444110      0.48224640     -1.40326720
H       2.60728706      1.21820512     -0.01051583
H       2.46632031     -0.94773565      1.24711049
H       3.32714222     -1.17434226     -0.27456879
H       1.64764592     -1.69845053     -0.11989237
