11
b3lypvtz=-202336.23021099
C       2.05442292     -0.63712059      0.00000170
O       0.63076282     -0.71608856      0.00005291
C      -0.05713108      0.43782542      0.00005855
N       0.35073217      1.63872483      0.00002888
C      -1.55300831      0.22211135      0.00005570
O      -2.08282414     -0.85434651     -0.00008299
H       2.40934523     -1.66319389      0.00000533
H       2.41898683     -0.12389958     -0.89288391
H       2.41905083     -0.12387026      0.89284424
H       1.36372398      1.73243319     -0.00001674
H      -2.10877924      1.17548559      0.00000432
