16
b3lypvtz=-170475.42453102
C       3.00090386     -0.16415663      0.36942771
C       1.88706600     -0.31615525     -0.33299569
C       0.68435868      0.56439383     -0.21583744
O      -0.46634223     -0.24430987     -0.03541671
C      -1.67377043      0.49767399     -0.00575757
C      -2.83009704     -0.46419330      0.17625874
H       3.85589479     -0.81114240      0.22444696
H       3.10090973      0.61670598      1.11437024
H       1.80604378     -1.11368813     -1.06457912
H       0.57041367      1.16333770     -1.13336802
H       0.80144777      1.26719783      0.62007419
H      -1.78593115      1.06598146     -0.94013637
H      -1.64559816      1.22703242      0.81601464
H      -3.77552528      0.07983237      0.20437580
H      -2.86697495     -1.17927470     -0.64597999
H      -2.72301904     -1.01970930      1.10822562
