13
b3lypvtz=-179779.0534408
C       2.26950773      0.17156563      0.30196062
N       1.19361682     -0.38048309      0.67069562
C      -0.04388990      0.11033676      0.21279558
C      -0.41857987      1.38559148      0.30439900
C      -0.93771762     -0.99721218     -0.27659866
O      -2.19477322     -0.47817913     -0.67620323
H       3.21424602     -0.18726727      0.70310939
H       2.30021261      1.00428046     -0.40789277
H      -1.40956389      1.68516172      0.00126804
H       0.24012767      2.13005311      0.72931141
H      -1.03866320     -1.72830835      0.53482547
H      -0.43616374     -1.50966766     -1.10897698
H      -2.73815941     -1.20587150     -0.98869349
