15
b3lypvtz=-157249.40256194
C       3.11546772     -0.09402707      0.00000479
C       1.87629722      0.40582118     -0.00000084
N       0.70416566     -0.31808700     -0.00000523
C      -0.56670280      0.23292728     -0.00000176
C      -1.71671038     -0.44549294     -0.00000008
C      -3.06869779      0.19922473      0.00000322
H       3.30928202     -1.15902789      0.00000716
H       3.96565223      0.56909959      0.00000730
H       1.71782044      1.47807557     -0.00000332
H       0.77684473     -1.32308908      0.00000173
H      -0.56674885      1.31749206     -0.00000162
H      -1.68793197     -1.53177187     -0.00000063
H      -3.65551036     -0.08954361     -0.87730711
H      -2.98956901      1.28766975      0.00000114
H      -3.65550484     -0.08954068      0.87731823
