10
b3lypvtz=-189139.38108205
O       0.88595306      0.01818652      0.03427346
C       2.10199156     -0.00969509      0.04153742
N       2.99179051      1.05556957      0.04696126
H       2.67648348      2.00800511      0.04516824
C       4.31155952      0.61272011      0.05477340
C       4.28075123     -0.73262699      0.05445401
N       2.94206379     -1.11460711      0.04644491
H       2.58345475     -2.05160971      0.04417665
H       5.14777901      1.28645722      0.05983873
H       5.08527309     -1.44389964      0.05917191
