12
b3lypvtz=-218195.1805709
C       2.17017921     -0.63882021      0.00005371
N       0.71981415     -0.61393343     -0.00006832
C       0.00626055      0.53233170     -0.00015390
O       0.47203069      1.65914094     -0.00020782
C      -1.50608014      0.36000558     -0.00011754
F      -1.89891829     -0.98066058      0.00000486
H       2.55309633     -1.14630875     -0.88697633
H       2.52073893      0.38991407     -0.00068558
H       2.55303226     -1.14497823      0.88788020
H       0.20362145     -1.47774943      0.00007206
H      -1.91479192      0.83929424     -0.88956453
H      -1.91474323      0.83944009      0.88927318
