12
b3lypvtz=-223182.43293531
C       0.99919001      1.48183812     -0.26341606
C       0.71282860      0.22426605      0.04873416
C       1.72796823     -0.87785484      0.15109577
C      -0.69924905     -0.19433772      0.35567143
F      -1.07880877     -1.21685434     -0.48387430
F      -1.59447346      0.81844640      0.18011011
H       0.23143989      2.23914532     -0.32317935
H       2.01710534      1.78521681     -0.47006246
H       1.70637971     -1.34646121      1.13933986
H       1.52181817     -1.66506082     -0.57658384
H       2.73301429     -0.49794708     -0.02277694
H      -0.81704096     -0.56492769      1.37848463
