13
b3lypvtz=-179786.80168933
C      -2.77020665      0.24845418     -0.30562510
C      -1.71772008     -0.24775626      0.32875500
C      -0.34321398      0.32976769      0.24431882
O       0.56246687     -0.72301541     -0.12505564
C       1.88338426     -0.42719343     -0.18606734
N       2.49432986      0.65611552      0.02034024
H      -3.75579997     -0.18169755     -0.18878108
H      -2.68644713      1.10652463     -0.96227293
H      -1.82233953     -1.11311886      0.97453815
H      -0.30112805      1.13597015     -0.49313767
H      -0.03653133      0.73442005      1.21590894
H       2.43071440     -1.32346523     -0.46578717
H       1.88424234      1.42997753      0.27308076
