18
b3lypvtz=-171245.26167516
C      -1.62676243     -1.18833136     -0.49029412
C      -0.90544257     -0.60646997      0.72590011
C       0.04662933      0.55993756      0.41521257
C      -0.65045404      1.77596141     -0.17764897
O       1.07128153      0.19224561     -0.51120500
C       2.08992080     -0.62810665      0.01869381
H      -0.91359325     -1.49159629     -1.25729355
H      -2.21281106     -2.06414820     -0.20784038
H      -2.31145307     -0.46828562     -0.94016058
H      -0.33888966     -1.39798106      1.22318765
H      -1.63321870     -0.25595952      1.46364331
H       0.52708774      0.85715267      1.35877967
H      -1.06490812      1.54597672     -1.15897878
H      -1.46093679      2.11161126      0.47132764
H       0.05996014      2.59355532     -0.29715071
H       2.54088154     -0.17946452      0.91328476
H       1.73326384     -1.63136949      0.27792324
H       2.85576177     -0.72312686     -0.74979666
