13
b3lypvtz=-177386.66224505
C       2.28487165     -0.38710961      0.34673906
N       1.36581367     -0.25010803     -0.50788574
C       0.11023062      0.26928263     -0.15332753
N      -0.15609931      1.50088047      0.00261761
C      -0.98313609     -0.78740348     -0.06278699
N      -2.32706705     -0.30362591      0.17546814
H       2.16732892     -0.12654062      1.40346741
H       3.25035108     -0.77730400      0.03284546
H       0.67932240      2.07508612     -0.11016880
H      -0.70126057     -1.48712807      0.73192926
H      -0.95931975     -1.37233395     -0.98577353
H      -2.60368331      0.30806300     -0.58446148
H      -2.33039827      0.28801144      0.99906914
