14
b3lypvtz=-188181.23705462
C      -2.86044164     -0.21291377     -0.08047269
N      -1.62782388      0.50446822      0.20039190
N      -0.51325954     -0.29783635      0.18353673
N       0.51324470      0.29771553     -0.18340207
N       1.62781019     -0.50457934     -0.20026255
C       2.86045340      0.21287272      0.08028110
H      -2.94511487     -1.05075117      0.60965217
H      -3.69843798      0.46131578      0.09207209
H      -2.92152069     -0.60046214     -1.10462918
H      -1.49231347      1.34825383     -0.35009270
H       1.49239455     -1.34827276      0.35038144
H       2.92173276      0.60055683      1.10437478
H       2.94494477      1.05061903     -0.60997941
H       3.69844571     -0.46134441     -0.09233360
