10
b3lypvtz=-222411.00142764
C       1.84827186     -0.15966353     -0.09231124
C       0.63203341      0.36343943     -0.03135260
F       0.46155549      1.70307396     -0.02218584
C      -0.63203335     -0.36343922      0.03135260
C      -1.84827187      0.15966352      0.09231124
F      -0.46155538     -1.70307378      0.02218583
H       2.71854875      0.47707741     -0.13543015
H       1.97216631     -1.22997397     -0.09910840
H      -1.97216666      1.22997391      0.09910842
H      -2.71854855     -0.47707773      0.13543014
