13
b3lypvtz=-179786.48891351
C      -2.02412018     -0.64500214      0.00005840
C      -0.73976351      0.14778781     -0.00012378
O      -0.72219735      1.35487464     -0.00014322
N       0.44153351     -0.67498618     -0.00037052
C       1.59126053     -0.07088749      0.73167704
C       1.59141731     -0.07029338     -0.73162922
H      -2.61064026     -0.36675255     -0.87674437
H      -2.61078921     -0.36623860      0.87659060
H      -1.84111251     -1.71503383      0.00034268
H       2.17832936     -0.79321688      1.28214249
H       1.39995642      0.87441362      1.22265272
H       2.17860444     -0.79220395     -1.28251850
H       1.40023744      0.87539894     -1.22189434
