11
b3lypvtz=-179012.36134276
C       1.21268021     -0.24715864     -0.00271936
C       0.28141130      0.94759664      0.06046730
C      -1.08012559      0.39443119      0.07065722
O      -0.55400774      1.06350355     -1.09650140
C      -0.86529166     -1.08514761     -0.01070459
N       0.35172661     -1.44594443     -0.08204052
H       1.86926326     -0.21913665     -0.87421584
H       1.84438417     -0.32487494      0.88529369
H       0.55396799      1.87815452      0.54294995
H      -1.94502955      0.85299943      0.53228546
H      -1.66897898     -1.81442305     -0.02547191
