13
b3lypvtz=-156469.8138139
C      -0.38064099     -1.14449478     -0.37926097
C      -1.34573926     -0.28897645      0.41112656
C      -0.95149696      0.98102956      0.40275862
N       0.24763885      1.23000941     -0.34140252
C       0.69241776     -0.12764400     -0.75835594
C       1.42518344      0.59856182      0.30356788
H       0.00715083     -1.98951021      0.19692639
H      -0.84817982     -1.56353028     -1.27519510
H      -2.22871871     -0.66926435      0.90303043
H      -1.43135779      1.82450032      0.87793006
H       1.13637591     -0.18611023     -1.74320009
H       2.37491356      1.06409792      0.07268021
H       1.30245322      0.27133128      1.32939448
