15
b3lypvtz=-203867.58940889
N       1.79767900      0.66873359     -0.31416737
C       1.31153969     -0.72155557     -0.18783543
C       0.15371587     -0.80897766      0.80635297
C      -1.08222303     -0.01547604      0.37943505
O      -0.85114884      1.36199846      0.27427413
O      -1.51762822     -0.56853869     -0.85933351
H       2.32713563      0.93854744      0.50753414
H       2.41818172      0.76194217     -1.10885984
H       2.10247326     -1.41938108      0.11095204
H       0.95385424     -1.03306646     -1.16840431
H       0.46758037     -0.44632509      1.78890697
H      -0.13208150     -1.85597068      0.92460448
H      -1.87584180     -0.12919219      1.12563887
H       0.04168718      1.46453889     -0.11173964
H      -2.17783857      0.03685791     -1.21289956
