10
b3lypvtz=-222405.804162
C       2.17186854     -0.70836685     -0.00000487
C       0.84129958     -0.79147381      0.00000946
C      -0.04201022      0.35181810      0.00002405
F       0.54961949      1.56939932      0.00001315
C      -1.37469656      0.34014055      0.00001049
F      -2.05406974     -0.82053356     -0.00001995
H       2.78288880     -1.59951544     -0.00001555
H       2.68018411      0.24560921     -0.00000357
H       0.34409032     -1.75282184      0.00000895
H      -1.99630531      1.22236632     -0.00003917
