15
b3lypvtz=-180548.57184779
C       1.38265236      1.18770645      0.40317178
C       0.76988551      0.07967413     -0.02018824
O       1.50780332     -1.04826872     -0.28073466
N      -0.59756667     -0.08246637     -0.26802780
C      -1.26095938     -1.17425166      0.44798721
C      -1.40209738      1.12559503     -0.31857519
H       0.82752080      2.04785653      0.73795788
H       2.46010076      1.22461295      0.42694516
H       1.07912136     -1.51868841     -1.00613101
H      -0.60893340     -2.04203777      0.49956152
H      -1.52524702     -0.88478115      1.47463445
H      -2.17477209     -1.45409124     -0.07725352
H      -0.92312397      1.85987095     -0.96309223
H      -2.38071696      0.87968267     -0.73205737
H      -1.55682123      1.57779661      0.67159404
