13
b3lypvtz=-179755.60925388
C      -1.23197408      0.43207106     -0.81265322
C      -0.43618114     -0.76522926     -0.49362011
N      -1.28145914     -0.06754127      0.56823154
C      -0.00107725      0.41256261      1.20514250
C       0.86119369     -0.39383956      0.21757252
O       1.82851375      0.37571869     -0.47337796
H      -0.73012096      1.37123815     -1.01738319
H      -2.15747112      0.27662858     -1.35123591
H      -0.69197527     -1.75033203     -0.86323165
H       0.06349695      0.07577943      2.23705384
H       0.13401755      1.49391173      1.15965356
H       1.32239716     -1.26304659      0.69349019
H       2.32063985     -0.19792154     -1.06964212
