11
b3lypvtz=-202332.49843097
C      -1.30062198     -0.86144016      0.03050151
C      -0.66262792      0.22517540      0.44682364
O      -1.27229079      1.41149319      0.66440332
O       0.68089222      0.28075423      0.75349582
C       1.64359194      0.02683962     -0.21676685
N       1.51047166     -0.28251933     -1.42011458
H      -2.36217918     -0.82299421     -0.15270936
H      -0.77132511     -1.79053632     -0.09843165
H      -0.61538636      2.03402834      0.99669484
H       2.61551664      0.14955029      0.24838084
H       0.53385889     -0.37045105     -1.70247752
