15
b3lypvtz=-208865.68051855
C      -0.56871431      1.25941396     -0.62281161
C       0.02356329     -0.12101511     -0.33021344
C       0.89661593     -0.10959485      0.92959730
O       2.01319821      0.76974429      0.82429024
C      -1.08416084     -1.15397408     -0.21153753
F      -0.55095942     -2.44223982     -0.09395091
H       0.22186006      2.00687278     -0.65816593
H      -1.09911404      1.27428643     -1.57638552
H      -1.27239924      1.55795401      0.15876513
H       0.65469169     -0.42203479     -1.17459976
H       1.22083035     -1.12623484      1.16703652
H       0.31211445      0.25797137      1.77681013
H       2.65955665      0.37202491      0.23336179
H      -1.70230429     -0.97597788      0.67330585
H      -1.72467850     -1.14709638     -1.09560225
