13
b3lypvtz=-203096.73138841
N       2.23340998      0.06285383     -0.44361660
C       1.25246057     -0.66042665      0.38695924
C      -0.09335900     -0.04491232      0.17410254
O      -0.11882777      1.33436305      0.22326573
C      -1.23102890     -0.70544876     -0.03425449
O      -2.44427072     -0.10293039     -0.21127104
H       3.17973285     -0.10865880     -0.12998751
H       2.17134045     -0.22970193     -1.41187194
H       1.56182593     -0.51965052      1.42793863
H       1.20503456     -1.73821772      0.20061516
H       0.77407298      1.61583064     -0.03481224
H      -1.27855523     -1.78334935     -0.05428569
H      -2.29720871      0.85200492     -0.19411578
