16
b3lypvtz=-168072.45452328
N      -1.90849065      0.14622966     -0.01038410
C      -0.65993897     -0.44899908      0.41997191
C       0.21281768     -1.34634776     -0.50815186
C       1.46371211     -0.62336458      0.05326556
C       0.55037853      0.51707399      0.56791345
N       0.45471961      1.59831325     -0.41180121
H      -2.66153208     -0.53030030     -0.00141723
H      -1.81783655      0.49387386     -0.95760718
H      -0.83442254     -0.95421988      1.37144670
H       0.04691545     -1.10410501     -1.55727768
H       0.14602457     -2.42655402     -0.37643789
H       2.23220818     -0.33249569     -0.66212960
H       1.93127586     -1.17009698      0.87207162
H       0.74789647      0.86753198      1.58777686
H       1.33014756      2.10622030     -0.46246549
H      -0.25751725      2.25912828     -0.12148084
