14
b3lypvtz=-169694.91786839
C       2.98737949      0.39390207     -0.06081745
C       1.62004455     -0.09983798      0.01835855
C       0.49212985     -0.51006673      0.08126819
C      -0.88205333     -1.01432339      0.15465847
O      -1.84280269     -0.18506846     -0.47873064
C      -2.02961628      1.06185071      0.16401983
H       3.49839486      0.00661746     -0.94436262
H       3.56287935      0.09592884      0.81788550
H       3.00578490      1.48419605     -0.11544416
H      -1.15587997     -1.17407477      1.20724135
H      -0.94769568     -1.97921038     -0.35075687
H      -2.80954353      1.58619688     -0.38479725
H      -2.35212641      0.92937169      1.20479706
H      -1.11579209      1.66433899      0.15404603
