12
b3lypvtz=-189868.44397836
C       2.52091442     -0.04753537     -0.00009564
N       1.32272814      0.37879641     -0.00014441
N       0.32120776     -0.52679007     -0.00005911
C      -1.01715404     -0.17468203     -0.00011161
C      -1.32804057      1.30013006     -0.00028288
O      -1.85773022     -1.05068188     -0.00003562
H       3.31624045      0.68469160     -0.00014914
H       2.78191076     -1.10783409      0.00003188
H       0.51842520     -1.52445260      0.00004278
H      -0.89724841      1.78620141      0.87493140
H      -0.89719925      1.78600445     -0.87558213
H      -2.40777923      1.41522710     -0.00032552
