9
b3lypvtz=-154919.38612165
C       3.20935351      0.16143646     -0.00001590
C       2.01143313      0.02604886     -0.00001157
C       0.66080445     -0.12891290     -0.00000799
C      -0.54331846     -0.26037807     -0.00000472
C      -1.96037771     -0.42653330     -0.00000148
N      -2.83049523      0.50500960      0.00000419
H       4.26427141      0.28116091     -0.00001857
H      -2.31697557     -1.45664912     -0.00000421
H      -2.37957051      1.42179856      0.00000624
