18
b3lypvtz=-168848.18453359
C      -0.48872968      1.52081815     -0.21829346
C      -0.43095277      0.00649316      0.02635825
C      -1.65298232     -0.66822373     -0.59970129
N      -0.47407967     -0.21298990      1.47995414
C       0.85214876     -0.58498811     -0.60783440
N       2.06388495     -0.04221223      0.01582427
H      -0.45279276      1.75183243     -1.28571662
H       0.34444220      2.02828589      0.27170025
H      -1.40937608      1.92984699      0.19723894
H      -1.62788027     -1.74982974     -0.43998437
H      -1.69589606     -0.49074334     -1.67574554
H      -2.56791873     -0.28241916     -0.14922260
H      -0.60591510     -1.20078438      1.67369803
H       0.43526565      0.03008510      1.86253617
H       0.82075182     -0.43698467     -1.69698188
H       0.84593336     -1.66391575     -0.43316286
H       2.85779573     -0.64555461     -0.15433247
H       2.29903095      0.86357890     -0.37046858
