12
b3lypvtz=-192262.01568885
O       2.62796888      1.15973686     -0.11983991
C       2.32335414      0.00970715      0.10139147
C       0.95128904     -0.53322033      0.01029058
C      -0.09573594      0.23230537     -0.30005871
C      -1.50789468     -0.24535102     -0.42881466
O      -2.41335547      0.50411784      0.37724516
H       3.09750213     -0.72463189      0.39988470
H       0.82812609     -1.59130506      0.21703349
H       0.08432110      1.28877869     -0.48299246
H      -1.80662457     -0.21205992     -1.48539772
H      -1.59487152     -1.28015906     -0.09817610
H      -2.49397919      1.39208136      0.01533414
