12
b3lypvtz=-187441.66215098824
C       1.47154361     -0.11183646     -0.36224698
N       0.18683241     -0.07705658     -0.28455922
N      -0.66620137     -0.75620428     -1.11125394
C      -1.92863045     -0.49426616     -0.69385675
N      -2.21624333      0.26397677      0.31892459
N       2.30377477      0.65872922      0.40236499
H       1.91487007     -0.74215174     -1.12023473
H      -0.33033655      0.48335183      0.42171652
H      -2.67447185     -0.99389146     -1.31300075
H      -3.21350997      0.35028415      0.46286618
H       1.91462680      1.10998544      1.21568760
H       3.23774587      0.30907925      0.53527220
