12
b3lypvtz=-187416.51571911
C      -2.68353159     -0.46095488     -0.00003353
C      -1.47570307      0.41328770      0.00002306
N      -0.30106422     -0.07867136      0.00008543
N       0.75716582      0.75435630      0.00011207
N       2.04989950      0.30907572     -0.00010784
N       2.27531672     -0.90834890     -0.00002776
H      -2.39421263     -1.50992561     -0.00002779
H      -3.30512692     -0.26358746      0.87762642
H      -3.30507517     -0.26358285     -0.87772921
H      -1.63104993      1.49779605      0.00002061
H       0.66096762      1.76062920     -0.00024442
H       1.39218287     -1.44619790      0.00006095
