13
b3lypvtz=-179797.4550118
C      -1.44588466      1.28283521      0.00001915
C      -1.07576794     -0.18452920      0.00001498
N      -1.92884078     -1.13873150      0.00001873
C       0.33898162     -0.55333572     -0.00000045
C       1.36145878      0.30839646      0.00000008
O       2.67667846     -0.01298297     -0.00001362
H      -1.04431703      1.79011169      0.87982051
H      -2.52819085      1.40219229      0.00005159
H      -1.04437003      1.79010303     -0.87981151
H      -2.88006483     -0.77129435      0.00002889
H       0.52810932     -1.62195453     -0.00000628
H       1.23347090      1.38224567     -0.00000231
H       2.77542503     -0.97305108     -0.00001274
