10
b3lypvtz=-212367.35465529
O      -2.58236308      0.19847973     -0.57193259
C      -1.34301780     -0.25965193     -0.27647098
C      -0.25065313      0.47581777     -0.50618232
N       0.98519142     -0.07291351     -0.17229231
N       1.95375355      0.65858938     -0.41014581
O       3.13971118      0.05883378     -0.05763310
H      -3.24074311     -0.46180334     -0.34015181
H      -1.25925023     -1.24976803      0.15612468
H      -0.29807654      1.46918136     -0.93712199
H       2.89544773     -0.81686522      0.29990622
