12
b3lypvtz=-187481.86124875
N      -2.65197251     -0.11275201      0.09965496
C      -1.45789850      0.20685353     -0.19607146
N      -0.33660453     -0.58299855     -0.01414616
C       0.84237255     -0.05835395      0.00791462
N       1.94477096     -0.87683946     -0.09155128
N       1.15563154      1.27530617      0.15386229
H      -2.65209903     -1.04057368      0.52994823
H      -1.32152882      1.17956971     -0.68708403
H       1.71157546     -1.85638484     -0.05779851
H       2.75086615     -0.62113771      0.45670855
H       1.99776905      1.59992283     -0.29254949
H       0.39217268      1.92882496      0.13649027
