12
b3lypvtz=-168930.99271689644
C      -1.78514100     -0.55058315      0.01579090
C      -0.46174711      0.09022643     -0.00123899
C       0.83822358      0.04249862     -0.00192131
C       0.24036537      1.42125301     -0.03463401
C       2.04391566     -0.76208972      0.01562358
O       3.16908422     -0.31499682      0.00329848
H      -2.35679782     -0.25276253     -0.86720851
H      -2.35528404     -0.20989291      0.88413779
H      -1.71583071     -1.63751955      0.04239320
H       0.26092413      2.03658034      0.86276366
H       0.25830719      1.99206499     -0.96104371
H       1.86398053     -1.85477872      0.04203894
