15
b3lypvtz=-208858.55492884
C      -2.87668318     -0.25302186     -0.16372608
C      -1.50538366     -0.22033772      0.47887989
O      -0.64271127      0.55470741     -0.34740249
C       0.67826593      0.70046157      0.14001593
C       1.56936381     -0.44043784     -0.33166644
F       2.86411655     -0.22910744      0.14359043
H      -3.27081877      0.75737627     -0.27444086
H      -3.56893749     -0.83011858      0.45130411
H      -2.82751380     -0.71162603     -1.15165676
H      -1.11715191     -1.23926798      0.59839637
H      -1.55651870      0.23068155      1.47834772
H       1.06578026      1.64156110     -0.25321328
H       0.69723710      0.75897592      1.23439181
H       1.60507233     -0.47398739     -1.42157918
H       1.22882480     -1.40575098      0.04714082
