15
b3lypvtz=-180553.47079542
C      -1.30798251      1.18336073      0.54796730
C      -0.80667639      0.09895892     -0.03259825
O      -1.63406952     -0.94856596     -0.35907612
C       0.65462857     -0.13255251     -0.35426690
C       1.28444636     -1.13499267      0.62109682
N       1.40605938      1.11717692     -0.30994901
H      -0.64989995      1.98049023      0.85228395
H      -2.36718350      1.26300528      0.74492827
H      -1.16446435     -1.56348452     -0.93201740
H       0.67191486     -0.59356343     -1.36043039
H       2.29988394     -1.38920989      0.30944761
H       1.32387009     -0.69886192      1.61887463
H       0.70617134     -2.05803461      0.66744548
H       2.38584885      0.94823615     -0.50086838
H       1.06307185      1.76925728     -1.00505262
