12
b3lypvtz=-189879.42688135
N       2.34101429     -0.10863824      0.01095742
C       1.10527708     -0.69437869      0.03131049
C      -0.05344512      0.00689725      0.02538150
N      -0.05874230      1.41835815     -0.05798363
C      -1.31580806     -0.69848886      0.01157266
O      -2.40250908     -0.14552512     -0.03262623
H       3.12653937     -0.68174410     -0.24449206
H       2.36860866      0.83305744     -0.35396316
H       1.07950943     -1.77280920      0.10717992
H      -1.01812747      1.73792318     -0.13935634
H       0.35589319      1.85502167      0.75737866
H      -1.23763200     -1.80346647      0.02008678
