16
b3lypvtz=-170475.61411418
C      -0.61447240      1.38307619     -0.49282427
C      -0.27259233     -0.00527755      0.00440511
C       0.64201278     -0.12866257      1.20968792
C       1.13166041     -0.50536313     -0.16604553
O       2.04915620      0.32386125     -0.83112153
C      -1.39290331     -1.01505862     -0.13168894
H      -1.43651860      1.80587836      0.09001117
H       0.23893874      2.05434808     -0.42542830
H      -0.92882928      1.35167261     -1.53898680
H       0.45840213     -0.91521458      1.93041233
H       1.03295485      0.79023374      1.62706337
H       1.25346409     -1.56334000     -0.38277227
H       2.90133466      0.24720900     -0.39086209
H      -1.08869869     -2.00435452      0.21407415
H      -1.71147556     -1.10732326     -1.17313373
H      -2.26243368     -0.71168498      0.45720937
