17
b3lypvtz=-158016.12092125
C       2.46553811     -0.15774937      0.00247195
C       1.06375100     -0.67222985     -0.32466502
C      -0.07865332      0.07272062      0.40049261
C      -0.20938740      1.53304600     -0.02668957
C      -1.36058680     -0.71908517      0.24201846
N      -2.47577979     -0.36265618     -0.23781109
H       2.61072242      0.87310929     -0.32222269
H       3.22445862     -0.76483750     -0.49325688
H       2.65845978     -0.19921529      1.07695985
H       0.88927149     -0.61579791     -1.40348234
H       1.00750892     -1.73272294     -0.06371434
H       0.15494522      0.04305769      1.47368774
H      -1.01873553      2.03400911      0.50711180
H       0.70588672      2.08518078      0.18195644
H      -0.40809942      1.61650050     -1.09794123
H      -1.28757819     -1.75365464      0.59210882
H      -2.45514281      0.61312786     -0.54053150
