13
b3lypvtz=-179771.72942633
N       2.74573053      0.10526850     -0.19504001
C       1.56676794      0.35162535      0.19401045
C       0.41255067     -0.61250027      0.31505826
C      -0.79930637     -0.15203821     -0.46277814
C      -2.16463979     -0.39023193      0.00949262
O      -1.56706842      0.90537578      0.12230568
H       2.85103979     -0.88363101     -0.43707786
H       1.33872466      1.38093468      0.47937964
H       0.71956364     -1.60378253     -0.03129110
H       0.13149128     -0.69597606      1.36941307
H      -0.64773770     -0.03844037     -1.53356192
H      -2.31861465     -0.91230062      0.94883281
H      -2.97810958     -0.46379131     -0.70462751
