12
b3lypvtz=-213147.84765076
C      -2.09626728     -0.63178437      0.00811843
O      -1.26575402      0.53334037      0.00060316
C       0.06522379      0.32870844     -0.00271511
N       0.77709537      1.49564629     -0.06231448
N       0.54299074     -0.86109590      0.00854768
O       1.97686999     -0.78168465      0.02192927
H      -3.11693634     -0.25915916      0.01356766
H      -1.90534197     -1.23677738      0.89420371
H      -1.91588060     -1.23836708     -0.87895741
H       1.74688946      1.39913706      0.19126529
H       0.30471506      2.30962648      0.29362843
H       2.22307681     -1.70798912      0.08035136
