14
b3lypvtz=-190627.05241778
C      -2.56708228     -0.16502174      0.01650181
O      -1.26970583      0.38539594     -0.07975645
C      -0.24974561     -0.57328473      0.03274464
C       1.10470985      0.11352454      0.00413949
N       1.29838161      1.36741200      0.00461720
N       2.16641568     -0.77225915      0.05515110
H      -2.75638641     -0.89135341     -0.78332489
H      -3.27286976      0.65760977     -0.07839753
H      -2.72250628     -0.66064351      0.98241166
H      -0.30954024     -1.30290547     -0.79003036
H      -0.34090859     -1.13774117      0.97144431
H       0.40553849      1.85267290      0.03634847
H       3.06171852     -0.34172371     -0.11912108
H       2.04539784     -1.66652926     -0.39209136
