14
b3lypvtz=-190637.40784267
C      -2.61802920     -0.28899509     -0.04776638
C      -1.31000042      0.48459461      0.03583359
N      -0.17206794     -0.42581103      0.00027587
C       1.12709171      0.07428864      0.00446732
N       1.52259473      1.27498145     -0.03504000
O       2.06566264     -0.91703584      0.02438337
H      -2.66323246     -0.87943172     -0.96328220
H      -3.46563747      0.39616298     -0.03731111
H      -2.73185420     -0.96634337      0.80192359
H      -1.29937345      1.10511082      0.94127333
H      -1.22345524      1.16077953     -0.81659850
H      -0.28929020     -1.24546850      0.57999385
H       0.75206713      1.92724074      0.05906233
H       1.68849537     -1.71420023     -0.36426907
