16
b3lypvtz=-168090.17872289
C       2.90783090     -0.25610972     -0.14110279
C       1.47730288     -0.40200869      0.37522824
C       0.53444347      0.65899581     -0.20137345
N      -0.83783814      0.56468256      0.26685457
C      -1.81303853     -0.13977736     -0.38994813
N      -2.98292102     -0.46055887     -0.00235249
H       3.56256226     -1.01392037      0.29013065
H       2.94941566     -0.36277516     -1.22734634
H       3.32373534      0.72208112      0.11056267
H       1.46765118     -0.33002822      1.46703502
H       1.08638600     -1.39250779      0.12864473
H       0.91813488      1.65670626      0.03043693
H       0.51578611      0.58374943     -1.29098435
H      -1.00937494      0.78275512      1.23644237
H      -1.51189701     -0.42218570     -1.40031060
H      -3.16438003     -0.15266442      0.95469597
