11
b3lypvtz=-199919.70341327
C       1.83534884     -0.80537412      0.08974564
N       0.56846357     -0.71820806      0.00356398
C      -0.04340565      0.52293477     -0.06071240
O       0.76720208      1.62131574     -0.13646622
N      -1.30908136      0.68565255     -0.06821761
N      -2.12205195     -0.40658545      0.11605600
H       2.49519235      0.05955907      0.13665149
H       2.28267690     -1.79463304      0.11977272
H       0.18550578      2.39162128     -0.15699353
H      -2.98829648     -0.26771285     -0.38133068
H      -1.67165408     -1.28846990     -0.11216939
