15
b3lypvtz=-180533.77514302
C      -2.12935872     -0.63483461     -0.03114904
N      -0.78593192     -0.19459196     -0.37502168
C      -0.49701787      1.23385225     -0.24261035
C       0.07941238      0.25057477      0.70945128
C       1.51796484     -0.21592120      0.62247039
O       1.95974456     -0.31977435     -0.71672867
H      -2.56957483     -0.06197703      0.79734119
H      -2.77798933     -0.53254524     -0.90219724
H      -2.10425628     -1.68762343      0.25339457
H       0.12284318      1.65937038     -1.02099430
H      -1.29431059      1.87342280      0.12270040
H      -0.34439101      0.24407534      1.71119632
H       2.17520937      0.49393665      1.12994452
H       1.60933619     -1.18046953      1.14187024
H       1.21294602     -0.68999583     -1.20968263
