12
b3lypvtz=-168922.6655595
C      -2.98972083     -0.05535850     -0.00000229
C      -1.81340168      0.17113678     -0.00000216
C      -0.39467189      0.49293296     -0.00000168
O       0.36604150     -0.71448066     -0.00000028
C       1.71506981     -0.57893832      0.00000055
C       2.43687401      0.53910476      0.00000028
H      -4.03000849     -0.26604932     -0.00000129
H      -0.14349072      1.08884581      0.88442427
H      -0.14348965      1.08884441     -0.88442828
H       2.17708779     -1.55771949      0.00000153
H       2.01337330      1.53168817     -0.00000071
H       3.51324484      0.45980239      0.00000106
