10
b3lypvtz=-165760.52004457885
C       2.18816547     -0.06030446      0.08235902
C       0.73730104     -0.15829137      0.06669683
C      -0.46626086     -0.23695289      0.05153196
C      -1.86593012     -0.37363248      0.03622495
N      -2.64118980      0.67750376     -0.01761440
N      -3.31624249      1.58335517     -0.06405776
H       2.64058981     -0.99227551     -0.26318633
H       2.53372094      0.73729907     -0.57893148
H       2.57107578      0.14501283      1.08481012
H      -2.38122978     -1.32171412      0.06655290
