14
b3lypvtz=-146391.4568821
C       2.57459231     -0.86558589      0.05984459
C       1.73600396     -0.03051905     -0.13885225
C       0.70865086      0.98119309     -0.36075425
C      -0.56527979      0.77413593      0.49293087
C      -1.29885953     -0.49367294      0.17474447
C      -2.55953949     -0.55853236     -0.23435597
H       3.32097611     -1.60059651      0.22925862
H       1.12862333      1.96546218     -0.13650946
H       0.43578879      0.99178313     -1.41938532
H      -0.27082220      0.77423110      1.54667310
H      -1.22448284      1.63119232      0.34124725
H      -0.73009581     -1.41107448      0.29189002
H      -3.16257560      0.33291638     -0.36553128
H      -3.03795408     -1.50512688     -0.44874940
