11
b3lypvtz=-202340.90119071
O       2.12952445      1.01297315     -0.28854559
C       1.27503985      0.28645502      0.15481552
O       1.55078547     -0.85942236      0.81179112
C      -0.18423679      0.54717430      0.00474725
C      -1.17167683     -0.55283115     -0.19324254
N      -1.08359696      0.12355227      1.09385842
H       2.51570642     -0.93294172      0.84419943
H      -0.37526120      1.48960240     -0.49041987
H      -0.82182071     -1.57618261     -0.19005943
H      -2.00862464     -0.34557122     -0.84924079
H      -1.82593907      0.80729192      1.19709647
