12
b3lypvtz=-189890.69626751
C       2.21610785     -0.33768912      0.00000880
C       0.79137083      0.17809313      0.00034861
O       0.51657647      1.36094876      0.00016377
N      -0.17203390     -0.81368700      0.00022967
C      -1.56868887     -0.63586715     -0.00008506
N      -2.23203032      0.43547614     -0.00020453
H       2.89338526      0.51077394      0.00092273
H       2.40615659     -0.95038008     -0.88344590
H       2.40620600     -0.95243170      0.88202159
H       0.15116971     -1.76753693      0.00033531
H      -2.08576950     -1.59578474     -0.00023356
H      -1.61662511      1.24768174     -0.00002543
