10
b3lypvtz=-212423.91778195
C      -1.35488891     -0.41257732     -0.04556489
N      -2.56608148     -0.10903467     -0.25840778
N      -0.28879809      0.48806820     -0.15541386
C       0.89856433      0.10444548      0.07344266
O       1.28716306     -1.12676138      0.42761606
O       1.94220647      0.94632400     -0.02337920
H      -1.11960971     -1.43767441      0.24174799
H      -2.62993998      0.87816962     -0.51697210
H       2.24671383     -1.13861454      0.53730356
H       1.58467047      1.80765502     -0.28037242
