14
b3lypvtz=-167332.47473798
C      -2.32313538     -0.37288351      0.09637146
C      -0.88971143     -0.73175996     -0.28590060
C       0.14890440      0.21471782      0.34332738
N      -0.01957651      1.58230700     -0.15026775
C       1.51570301     -0.30828221      0.12888090
N       2.58802858     -0.68076431     -0.06464924
H      -2.56409942      0.64712905     -0.19769515
H      -3.02830714     -1.04801776     -0.38924919
H      -2.47367169     -0.45602987      1.17488465
H      -0.65756728     -1.75236713      0.02373325
H      -0.76529136     -0.70391388     -1.37206393
H      -0.01570521      0.23551657      1.42400805
H       0.21265282      1.63179487     -1.13618688
H       0.60035362      2.22042430      0.33378406
