15
b3lypvtz=-157223.5427333715
C      -2.91012567     -0.14608763     -0.16474454
C      -1.57219849      0.50517816     -0.01334308
C      -0.39348711     -0.14563196     -0.05711189
C       0.90117139      0.42766311      0.08050260
N       2.00530837     -0.32638529      0.01573107
C       3.30395884     -0.03696822      0.11128256
H      -3.46673868      0.26120127     -1.01566690
H      -3.54083984      0.01009368      0.71707308
H      -2.81501606     -1.22280463     -0.31676646
H      -1.56909111      1.58032238      0.14203561
H      -0.41915949     -1.22504788     -0.21409500
H       1.04703427      1.48612980      0.24122797
H       1.81095738     -1.31014752     -0.13606957
H       3.60720870      0.98272526      0.27280786
H       4.01101748     -0.84024052      0.02268618
