13
b3lypvtz=-179804.28527672
C       1.30119865      1.31803219     -0.29855345
C       0.71294510      0.15820648     -0.01185151
C       1.48260073     -1.10210144      0.27333591
C      -0.77657474      0.06764136      0.01419632
N      -1.62304685      0.94861393      0.35202999
O      -1.21653221     -1.15635429     -0.37374750
H       0.72982833      2.20341127     -0.54379419
H       2.37904706      1.40968446     -0.31454199
H       1.20396890     -1.52212806      1.24229014
H       1.26278436     -1.86648630     -0.47310804
H       2.55414447     -0.90821866      0.27346092
H      -1.16992876      1.80302247      0.65876603
H      -2.18195903     -1.12630541     -0.30761963
