14
b3lypvtz=-146397.24676141
C       3.21042913     -0.36658090     -0.00232653
C       2.07468696      0.01981604     -0.09431142
C       0.74806856      0.50676023     -0.23187424
C      -0.31674030     -0.00414621      0.39573256
C      -1.71733471      0.49992539      0.24913733
C      -2.68159890     -0.56946549     -0.28411188
H       4.20906899     -0.71426633      0.08574819
H       0.61742495      1.35550706     -0.89743946
H      -0.17278684     -0.85448054      1.05590997
H      -2.07695152      0.83776969      1.22748813
H      -1.72828253      1.37364144     -0.40641537
H      -2.69776872     -1.44510017      0.36746653
H      -2.38521402     -0.90121195     -1.28001809
H      -3.69852606     -0.17923526     -0.34397373
