15
b3lypvtz=-180555.05271543
C      -2.08678029     -0.87264783     -0.06209878
C      -0.86793826      0.00671323     -0.31666383
O      -1.09543850      1.34915463      0.12549833
C       0.36958052     -0.48675541      0.43784098
C       1.61674527      0.29119658      0.11042083
N       2.73853452     -0.16908292     -0.25758339
H      -1.91429941     -1.89430193     -0.40668699
H      -2.32171928     -0.89766864      1.00326593
H      -2.95903011     -0.48612016     -0.59434173
H      -0.64444855      0.00875939     -1.39140479
H      -1.81505177      1.72736670     -0.38891201
H       0.16026895     -0.38616549      1.50877262
H       0.53142455     -1.54675653      0.22724353
H       1.52592837      1.37406503      0.20578464
H       2.71191598     -1.19082065     -0.31439034
