14
b3lypvtz=-218934.31734114
N       0.60846091     -1.25075193     -0.43556248
C       0.20558582      0.16181269     -0.42836927
C      -1.31953097      0.21640890     -0.27366799
O      -1.75392263     -0.52792064      0.84847458
C       0.88686695      0.86442658      0.73094136
F       2.27772064      0.76709412      0.58810382
H       0.40825142     -1.67625392     -1.33301818
H       1.60670600     -1.33070239     -0.28385962
H       0.48145878      0.69050020     -1.35083031
H      -1.65602203      1.24580671     -0.13564821
H      -1.78083694     -0.15759006     -1.19808555
H      -1.21470168     -1.33270824      0.84317719
H       0.63033866      1.92446893      0.74634727
H       0.61962508      0.40530905      1.68209739
