14
b3lypvtz=-167287.96336373905
C      -0.90624722     -1.17449523      0.55789027
C      -0.36339051      0.08784511     -0.03691326
N      -1.24829941      0.99563621     -0.46041455
N      -1.18438623      2.17424937     -1.01819519
C       1.04425080      0.32520105     -0.15399831
C       2.01502984     -0.51979248      0.23047675
H      -0.57023997     -1.31031796      1.58983599
H      -1.99796806     -1.17309794      0.56517841
H      -0.58246460     -2.05584803     -0.00320932
H      -2.21433067      0.71627585     -0.31931710
H      -0.19885404      2.40633253     -1.14001762
H       1.34676329      1.26997219     -0.59187860
H       3.05595474     -0.25906922      0.10568145
H       1.80418203     -1.48289142      0.67488111
