16
b3lypvtz=-196394.44608998
C       0.48099415      1.78798568      0.00397255
C      -0.04255910      0.37536462     -0.26812013
C       0.82226540     -0.69928602      0.40255878
N       2.17291710     -0.72142960     -0.17386402
C      -1.49233069      0.26560859      0.17184875
F      -2.04358509     -0.96010168     -0.21914931
H       1.53527172      1.84953978     -0.25812995
H      -0.06545249      2.53647874     -0.57258127
H       0.38453535      2.04359970      1.06289050
H      -0.02340362      0.19669628     -1.34943550
H       0.91815801     -0.45939574      1.46588441
H       0.30490903     -1.66286562      0.33623382
H       2.78099447     -1.31627182      0.37570685
H       2.14683204     -1.12234946     -1.10492717
H      -2.10097653      1.05160839     -0.27981504
H      -1.58386875      0.32965316      1.26017872
