11
b3lypvtz=-207335.81039435
C      -0.38982538      0.21711984     -0.01003292
C      -1.49782244     -0.50587102     -0.20712710
O      -2.77347813     -0.04139873     -0.24348863
C       0.93607897     -0.36147113      0.01325494
C       2.04765289      0.33995219      0.20748673
F       3.26159566     -0.25074221      0.22004918
H      -0.47791978      1.28999990      0.14067275
H      -1.47126422     -1.57680140     -0.36232225
H      -2.77697056      0.91283881     -0.10395992
H       1.03264211     -1.43137191     -0.13641280
H       2.10931089      1.40774568      0.36959654
