11
b3lypvtz=-197493.57074445
N      -2.27470154      0.50256158     -0.05906061
N      -1.87507147     -0.76932867      0.20049293
C      -0.62343534     -1.02326622      0.29173350
N       0.35680802     -0.03142403      0.21415006
N       1.52295616     -0.48655472      0.28414355
N       2.46892094      0.46040524      0.29101255
H      -3.21278722      0.66205212      0.26831777
H      -1.61270935      1.23503275      0.17084870
H      -0.31524951     -2.05200202      0.44200611
H       3.37515350      0.11939569      0.01867722
H       2.19001581      1.38322830     -0.02732178
