12
b3lypvtz=-194856.83643336
C       1.83576228     -0.93203051     -0.20465582
N       0.97800718     -0.46498796      0.59585091
C       0.08767564      0.53279521      0.17130990
C       0.47389750      1.74301380     -0.23731454
C      -1.35510266      0.16245020      0.33713005
F      -1.67195235     -0.91603132     -0.49547050
H       2.54280537     -1.67711691      0.15129716
H       1.90151230     -0.62458041     -1.25249521
H       1.51887459      2.01795966     -0.27583113
H      -0.25445823      2.50063611     -0.48895933
H      -2.00424714      0.99505442      0.06878117
H      -1.55269447     -0.15384928      1.36306433
