17
b3lypvtz=-158012.08688875
C      -2.99013423      0.36007378      0.10577285
C      -1.83755022     -0.63609191     -0.07985323
C      -0.52639694      0.03493942     -0.36400311
C       0.56821483     -0.04618268      0.38672265
C       1.87920439      0.62178919      0.07719896
N       3.00911302     -0.29229155     -0.15276975
H      -3.93486292     -0.15981894      0.27315063
H      -3.10975281      0.99228187     -0.77652673
H      -2.80620807      1.01405088      0.95954861
H      -1.74306249     -1.26355910      0.80965954
H      -2.08581730     -1.30704707     -0.90984340
H      -0.49474810      0.65006483     -1.26219326
H       0.54773151     -0.65793745      1.28747805
H       1.76761011      1.25353145     -0.80714423
H       2.16515044      1.28573996      0.89814258
H       2.75549619     -0.97590057     -0.85780756
H       3.21290558     -0.81697109      0.69072342
