9
b3lypvtz=-224872.14699157
C       2.06912479      0.25298048     -0.37736089
N       1.01629882     -0.33451577      0.00219712
O      -0.10975639      0.28700426     -0.59962138
C      -1.27946480     -0.30001139     -0.23145002
O      -1.43979500     -1.22752644      0.50082850
O      -2.24522818      0.38615173     -0.86994191
H       2.07399311      1.09883222     -1.05904564
H       2.99604569     -0.13807233      0.02090931
H      -3.08121802     -0.02484276     -0.61355253
