13
b3lypvtz=-177372.371771
N      -2.65883884      1.24625183     -0.07342116
C      -1.80416060      0.31890154     -0.17546930
C      -0.77013945     -0.11125546      0.84134150
C       0.62905298      0.03746250      0.31678185
N       1.36318290     -0.98110087      0.11831556
N       2.65231022     -0.79171960     -0.30312968
H      -2.58388693      1.71177739      0.83490519
H      -1.79033168     -0.24777138     -1.11005833
H      -0.90057969      0.47740684      1.75519072
H      -0.92328906     -1.16476886      1.08725181
H       0.98579866      1.05192681      0.10474887
H       2.81566019      0.06177279     -0.83104119
H       2.98502130     -1.60878353     -0.79051583
