9
b3lypvtz=-201522.16528296
C       2.31182001     -0.58671049     -0.25740729
C       1.14682708     -0.29768471     -0.29197871
C      -0.20994241      0.13613307     -0.35473580
O      -0.45049382      1.43974855     -0.64971663
N      -1.13883052     -0.71301291     -0.13212002
O      -2.40331564     -0.13005586     -0.23239356
H       3.33600013     -0.86395212     -0.22164817
H       0.39170285      1.89002310     -0.77751761
H      -2.98366768     -0.87448862     -0.04368221
