14
b3lypvtz=-169722.15910259
C      -0.12033947     -1.31676718      0.15098615
C       1.11901544     -0.83897535      0.16290046
C       1.40649226      0.63433125      0.16563040
O       0.25634192      1.43027406      0.40016244
C      -0.87312964      0.99421829     -0.34598971
C      -1.31231888     -0.40198379      0.08606803
H      -0.29501177     -2.38614050      0.17857124
H       1.97559856     -1.50364498      0.17365088
H       1.88458460      0.92580656     -0.78395414
H       2.11081393      0.88210788      0.96315252
H      -0.63596408      0.99393344     -1.41893931
H      -1.65386680      1.73391605     -0.17222188
H      -1.81007840     -0.35662213      1.06047458
H      -2.05223767     -0.79025360     -0.62059165
