17
b3lypvtz=-158018.45957376
C       2.68294529     -0.34057529      0.00001753
C       1.35971921      0.41357199     -0.00001738
N       0.23951925     -0.51979281     -0.00002127
C      -0.95203625     -0.08162933     -0.00001600
C      -1.33354046      1.38442180     -0.00000725
C      -2.08465252     -1.07245742     -0.00001071
H       2.75873167     -0.97923555     -0.88072037
H       3.52788013      0.35080297      0.00001856
H       2.75870361     -0.97920279      0.88078169
H       1.30952889      1.07132435      0.87723594
H       1.30955784      1.07129361     -0.87729529
H      -2.41345350      1.52104279     -0.00007534
H      -0.92380093      1.89167912     -0.87684050
H      -0.92392268      1.89162678      0.87691470
H      -1.69586180     -2.08767945      0.00000102
H      -2.72214611     -0.92828778      0.87722611
H      -2.72214461     -0.92830699     -0.87725144
