12
b3lypvtz=-168946.27352012
C      -2.72993678      0.13084361      0.00010726
C      -1.61339430     -0.30344556      0.00008792
C      -0.26608248     -0.84469071      0.00006299
C       0.85953382      0.20336012     -0.00000197
C       2.26117663     -0.36924012     -0.00005052
O       0.64388638      1.38721821     -0.00001325
H      -3.71322997      0.52971756      0.00012421
H      -0.11581525     -1.49289338      0.87030044
H      -0.11586918     -1.49294781     -0.87014306
H       2.98649685      0.43982585     -0.00007564
H       2.41564259     -1.00066750      0.87792511
H       2.41557971     -1.00066326     -0.87804049
