14
b3lypvtz=-169730.57116829
O       2.28091527      0.96005392      0.01242851
C       0.98424625      0.53590232      0.03323937
C      -0.07335657      1.31208800      0.26027147
C      -1.34342491      0.50238218      0.29541972
C      -0.91037539     -0.86942730     -0.28783412
C       0.62576540     -0.91726691     -0.13601927
H       2.84955413      0.23232548     -0.25455710
H      -0.02457850      2.37437742      0.45048634
H      -1.72176920      0.39923473      1.31934954
H      -2.15352834      0.94931938     -0.28583334
H      -1.16758131     -0.90789608     -1.34684357
H      -1.40585708     -1.70972287      0.19710700
H       1.11968602     -1.37092222     -1.00130334
H       0.94030424     -1.49054805      0.74408878
