11
b3lypvtz=-204911.15982761
C      -0.47101374      1.64532608      0.00000443
C       0.08319872      0.43391839     -0.00002310
C      -0.69111026     -0.85422340     -0.00000450
F      -2.05731626     -0.59762324      0.00004977
N       1.50043766      0.38115424     -0.00007800
N       1.95722926     -0.77993594     -0.00010383
H       0.16514952      2.51873353     -0.00001298
H      -1.54259881      1.77230495      0.00004112
H      -0.45231267     -1.45078695     -0.88200272
H      -0.45224497     -1.45079956      0.88196694
H       2.98153755     -0.69425310     -0.00013413
