16
b3lypvtz=-168070.04608544
C      -2.82230025      0.46863006     -0.15175000
C      -1.58406981     -0.19969838      0.35060092
N      -0.50631724     -0.19135701     -0.32501888
N       0.57769154     -0.88775778      0.13511627
C       1.85924333     -0.38880095     -0.34812927
C       2.27694055      0.97317619      0.20700524
H      -3.63640221     -0.25166438     -0.27618180
H      -2.62767266      0.94383042     -1.11164750
H      -3.17626068      1.22669267      0.55276559
H      -1.63836314     -0.71354429      1.31851216
H       0.56264215     -1.06032692      1.13878091
H       1.78990670     -0.34618551     -1.43542766
H       2.60770422     -1.14497622     -0.10117935
H       2.37763655      0.94138481      1.29473112
H       1.53622466      1.73275472     -0.04451584
H       3.23849031      1.28216558     -0.20837691
