14
b3lypvtz=-169684.95939971
O       1.75500873     -0.85327068      0.86437261
C       1.30891721     -0.33662397     -0.39129180
C      -0.14856463     -0.04792595     -0.30679474
C      -1.23416999     -0.75011573      0.44451216
C      -0.93694843      0.69668232      0.70355777
C      -0.91123549      1.17717800     -0.71102818
H       2.61344222     -1.26637614      0.73780989
H       1.50703213     -1.06007572     -1.19149569
H       1.84183378      0.58929621     -0.64441938
H      -0.90776705     -1.45400881      1.20041105
H      -2.15938734     -1.01849259     -0.06380082
H      -0.60047973      1.17971692      1.60409001
H      -1.80123660      1.07584646     -1.33030778
H      -0.32624481      2.06816969     -0.91571511
