13
b3lypvtz=-179799.78233776
C       1.84557115     -0.68381681     -0.44872004
C       1.04136285      0.06093081      0.62951277
C      -0.23797376      0.64275228      0.09023498
N      -0.47030271      1.85376330     -0.22477602
C      -1.40405378     -0.28686313     -0.12416515
O      -1.38861776     -1.45892802      0.15690075
H       2.10714949     -0.01908396     -1.27325097
H       2.77014209     -1.07637430     -0.02511153
H       1.27717024     -1.52193740     -0.84954115
H       0.79634052     -0.63577844      1.43347273
H       1.64098397      0.86801361      1.05525888
H       0.34267927      2.44792745     -0.04892044
H      -2.28885557      0.21329260     -0.55813582
