14
b3lypvtz=-270.424134329027 
     C      2.43789410      0.29571691      0.02516751
     O      1.33228882     -0.37931627      0.59199871
     C      0.19042574     -0.36570849     -0.22884965
     C     -1.01028787     -1.07705177      0.34574277
     C     -1.79511900     -0.00029360      0.28472038
     C     -0.71105106      0.93206035     -0.21808029
     H      3.26562846      0.20522327      0.72613983
     H      2.73115054     -0.15065482     -0.93334816
     H      2.22667536      1.35934571     -0.13712604
     H      0.45506075     -0.68193417     -1.24743794
     H     -0.36736812      1.66965682      0.50838993
     H     -0.88180597      1.42168617     -1.17977773
     H     -1.15896118     -2.10352264      0.65116346
     H     -2.84596057      0.16041253      0.48694722
