11
b3lypvtz=-233235.5018942
F       1.45274514      1.12889538     -0.07032652
C       0.74806418      0.01115540      0.29190765
F       1.51853970     -1.06791847     -0.04593947
C      -0.55520416     -0.03621496     -0.44150164
C      -1.73980450      0.68598385      0.07334525
N      -1.62100065     -0.76637185      0.24824704
H       0.62156347      0.01337316      1.37596430
H      -0.44652570     -0.14256906     -1.51525350
H      -1.66964627      1.26198874      0.98766309
H      -2.43862008      1.07572243     -0.65618931
H      -2.19919413     -1.26832164     -0.41546789
