11
b3lypvtz=-202303.03590108
C       2.92687652      0.10872973      0.00002972
C       1.70347427     -0.40035839     -0.00000133
O       0.59665936      0.40323808     -0.00001313
N      -0.58928491     -0.36244155     -0.00000391
C      -1.60483637      0.39685859      0.00000196
O      -2.84854415     -0.10925105      0.00000948
H       3.77654930     -0.55572485      0.00003038
H       3.10258166      1.17495690      0.00005123
H       1.47941428     -1.45817785     -0.00002281
H      -1.57000960      1.48018094      0.00000220
H      -2.78370135     -1.07540854      0.00000923
