13
b3lypvtz=-179771.24815166104
C       0.44648356     -0.73610059     -0.52317190
C      -0.93619125     -0.63646794      0.10450587
N      -1.29415295      0.78594264      0.20996993
C      -0.50789863      1.86721510      0.15823253
O       0.80405082      1.61032277      0.10266253
C       1.34856674      0.26270560      0.17322494
H       0.84574840     -1.74684818     -0.42746202
H       0.39186979     -0.49828925     -1.58747647
H      -1.68672189     -1.14275453     -0.50411778
H      -0.94387924     -1.10266723      1.09426941
H      -2.27533403      1.00202048      0.25854856
H       1.47558627      0.00766139      1.22862460
H       2.33187240      0.32725973     -0.28781019
