13
b3lypvtz=-179789.73367715
C       2.17736664     -0.68940686     -0.19797564
N       1.21483544     -0.23693765      0.47944392
C       0.02541494      0.21101783     -0.22433397
C      -0.15794596      1.72338701     -0.01706570
C      -1.18468655     -0.49946951      0.36680099
O      -2.14911865     -0.82028491     -0.27529991
H       3.07636041     -1.02605540      0.31326675
H       2.16562688     -0.76548677     -1.29194552
H       0.05382968     -0.01395499     -1.29806825
H      -1.06726654      2.06355416     -0.51201892
H       0.69334248      2.25904263     -0.43703584
H      -0.21834935      1.96174405      1.04532835
H      -1.12162743     -0.67910659      1.45851075
