10
b3lypvtz=-189112.21492936
C      -0.36419711     -0.89221197     -0.08392011
C      -1.49347985     -0.05229794      0.05148313
N      -1.16695553      1.22317471      0.17851782
N       0.19104053      1.22136559      0.12645107
C       0.69941653     -0.01780417     -0.02872272
O       2.04258962     -0.16605002     -0.09619415
H      -0.33179300     -1.96097682     -0.20241850
H      -2.53287771     -0.33868628      0.06016251
H       0.70419196      2.08185744      0.20105885
H       2.25206456     -1.09837052     -0.20641790
