15
b3lypvtz=-208859.15233669
C       2.52458666     -0.51219870      0.03169820
O       1.30431622      0.03948808      0.47664591
C       0.50780972      0.55130285     -0.57787653
C      -0.80795887      1.04361438      0.00245348
C      -1.66013266     -0.06396788      0.58710150
F      -2.06503518     -0.94064114     -0.42826367
H       2.36049121     -1.35014942     -0.65700512
H       3.14419820      0.23767104     -0.47656427
H       3.05797510     -0.87403818      0.90896293
H       0.32272074     -0.22957361     -1.32637725
H       1.03151432      1.37619153     -1.07965730
H      -1.37451884      1.55818149     -0.77730204
H      -0.60038037      1.77236904      0.79085988
H      -1.10225888     -0.64807718      1.31910614
H      -2.56451738      0.33470070      1.05011913
