12
b3lypvtz=-166538.52159526
C       2.80181937     -0.09642087      0.00570300
C       1.59568496     -0.07801474      0.00520401
C       0.17851810     -0.13504324     -0.00877869
C      -0.58376155      0.97655905     -0.09867364
N      -1.95455551      0.96834773     -0.05158108
N      -0.49350816     -1.41054905      0.07440308
H       3.86250329     -0.09792692      0.01035107
H      -0.11332534      1.94862813     -0.15589913
H      -2.36521160      0.05719085     -0.20149530
H      -2.43182650      1.73273172     -0.49812023
H      -0.02099032     -2.09731805     -0.50125883
H      -0.47534672     -1.76818462      1.02437050
