11
b3lypvtz=-199900.35533209
C      -2.32808262     -0.19867418      0.15011943
N      -1.10680842      0.15540351      0.21838906
N      -0.25330129     -0.26938851     -0.74127227
N       1.10843680     -0.23020927     -0.51065623
C       1.57117663      0.52681477      0.39193414
O       2.90484811      0.61746150      0.59750567
H      -3.00883514      0.18261672      0.89837521
H      -2.71960523     -0.85632391     -0.62940483
H      -0.50191863     -1.11523103     -1.24105802
H       0.99589360      1.15035537      1.06400691
H       3.33819618      0.03717502     -0.04434526
