12
b3lypvtz=-189840.10831742993
C      -0.19367011     -0.78025655      0.08564892
C      -1.24247279      0.22539246     -0.40378320
O      -1.55360769      1.21046846      0.56999617
C       1.12505813     -0.15662740      0.46666205
N       2.07590565     -0.03286191     -0.40331184
N       2.89714584      0.05790203     -1.18179224
H      -0.04175485     -1.53837911     -0.68808930
H      -0.58735524     -1.29509234      0.96416717
H      -2.17819859     -0.29557980     -0.61264815
H      -0.90369604      0.68971345     -1.33805381
H      -0.76035488      1.73501008      0.72269865
H       1.36300055      0.18031062      1.46299444
