12
b3lypvtz=-166562.3586345
C      -0.96969114     -0.43267371      0.32279107
C       0.34840530      0.26346726      0.18437724
C       1.47675336     -0.32709368     -0.21188953
C       2.72364617      0.35651162     -0.29577334
N       3.74350332      0.89043426     -0.36695729
N      -2.02170999      0.31145440     -0.38117426
H      -1.17059119     -0.56850208      1.39756060
H      -0.90315889     -1.43028191     -0.11391425
H       0.36993651      1.31658409      0.44699562
H       1.49093617     -1.37462497     -0.49054883
H      -2.19534022      1.19940736      0.07630763
H      -2.89268939     -0.20468266     -0.34859180
