16
b3lypvtz=-147162.88102908
C      -1.61149568     -1.73992258     -0.12803385
C      -0.98043526     -0.74428534      0.09963691
C      -0.21957345      0.47996845      0.35462062
C      -1.03553598      1.72151794     -0.04611148
C       1.15366294      0.45696361     -0.35122026
C       2.07613627     -0.66844238      0.10952584
H      -2.17023772     -2.62073567     -0.32321616
H      -0.03549031      0.53097295      1.43411762
H      -1.23258352      1.72169846     -1.11897226
H      -1.99330782      1.74575978      0.47266588
H      -0.48522027      2.63037468      0.20226131
H       1.63253406      1.42318805     -0.17055697
H       0.98844922      0.38622261     -1.42941132
H       2.28607462     -0.59400115      1.17899195
H       3.03002315     -0.62990470     -0.41852420
H       1.62913774     -1.64583571     -0.07496562
