14
b3lypvtz=-169710.92777487
C       2.27228362     -0.52660304     -0.22104876
C       1.06551486     -0.77583780      0.26688497
C      -0.05088619      0.22665838      0.37868351
O       0.43246536      1.50772975     -0.02404973
C      -1.23257268     -0.18448536     -0.46337566
C      -2.43413306     -0.47225374      0.02053167
H       3.02383934     -1.30319652     -0.27207062
H       2.54202288      0.45867469     -0.57412505
H       0.80879095     -1.76874379      0.62067757
H      -0.37242587      0.26036910      1.42983664
H      -0.31386309      2.11451705     -0.03382040
H      -1.03890378     -0.22774814     -1.53079216
H      -2.63958531     -0.43393286      1.08439924
H      -3.25368703     -0.76229572     -0.62377322
