17
b3lypvtz=-186330.72936836
C      -0.40825053     -1.35093883      0.75020222
C      -0.38917032     -0.00170071      0.01637353
C      -1.59981695      0.10272443     -0.92374055
C      -0.40902646      1.15194653      1.03044435
C       0.86760676      0.09531159     -0.84698456
F       2.02664950      0.00858110     -0.06872482
H      -1.29836389     -1.43504652      1.37631571
H      -0.41678216     -2.18374010      0.04328595
H       0.46782042     -1.46084940      1.38916217
H      -1.60661316      1.05223948     -1.46362777
H      -2.52874026      0.03892499     -0.35471820
H      -1.60584908     -0.70471321     -1.65937667
H      -0.41781993      2.12047830      0.52527263
H       0.46695203      1.11822636      1.67802018
H      -1.29908506      1.09525930      1.65969154
H       0.90786091     -0.71940642     -1.57438840
H       0.90719019      1.05069011     -1.37629631
