10
b3lypvtz=-209959.19582191
N       2.51894799      0.46809845     -0.32587056
N       1.87701647     -0.56418206     -0.60474089
N       0.55194678     -0.50910333     -0.39718179
N      -0.10488436      0.62649881     -0.03244451
C      -1.36762827      0.56935964      0.01350477
O      -2.07395323     -0.55971771     -0.29250514
H       3.49146974      0.22703530     -0.52976277
H       0.05268321     -1.31228893     -0.74528434
H      -1.92802201      1.44834629      0.30625851
H      -3.01757632     -0.39404645     -0.20807329
