14
b3lypvtz=-193010.20740826
O       2.51947956      0.06975318     -0.75777593
C       1.43539416     -0.34311470      0.05733183
C       0.15618546     -0.44111813     -0.74407059
C      -1.17351909     -0.50296678      0.03036977
C      -1.47049130      0.85481906     -0.62929475
O      -0.19061093      0.85678043     -1.31018625
H       2.24734931      0.88747521     -1.19109705
H       1.69839776     -1.32180300      0.46555135
H       1.28693367      0.34799462      0.89785515
H       0.27068317     -1.18151558     -1.54045164
H      -1.06965628     -0.47908992      1.11413688
H      -1.83975109     -1.31540924     -0.24835011
H      -2.29922043      0.86169910     -1.34059545
H      -1.57117397      1.70649575      0.04657681
