15
b3lypvtz=-180523.3292814595
C      -1.11153180     -1.05000881     -0.61499658
C      -0.23905244     -0.12863497      0.25478038
C      -0.98841758      1.16900146      0.60272663
C       1.06623960      0.16640959     -0.41364649
N       2.20643976     -0.17586197      0.11079645
O       3.37630442      0.00603476     -0.33329917
H      -0.60814479     -1.99482841     -0.82084845
H      -2.05786023     -1.26679771     -0.11639413
H      -1.34022657     -0.57610100     -1.57187618
H      -0.02106005     -0.65492497      1.19159166
H      -1.21381647      1.73964403     -0.30072092
H      -0.39603329      1.80462474      1.26121807
H      -1.93390920      0.94572927      1.10009277
H       1.11995196      0.68060103     -1.36441636
H       2.14111668     -0.66488707      1.01499232
