16
b3lypvtz=-191381.46748749
C      -0.86188204     -0.66729208     -0.31156503
C      -2.16340619      0.08498175     -0.06435159
O      -2.10406858      1.39998093     -0.58666159
N       0.25100291      0.09049984      0.26372095
C       1.58489710     -0.37659998     -0.13766725
N       2.67084970      0.44243439      0.35017630
H      -0.69317249     -0.73705142     -1.38895503
H      -0.94214132     -1.69430282      0.07616895
H      -2.99358837     -0.42609482     -0.55444164
H      -2.37894160      0.10186649      1.01482488
H      -1.21107159      1.71342062     -0.38641577
H       0.18510055      0.07435495      1.27718554
H       1.77783623     -1.40965523      0.18361191
H       1.60393593     -0.37444558     -1.22975471
H       2.77689572      0.35925346      1.35390191
H       2.49775404      1.41864948      0.14022217
