12
b3lypvtz=-192258.49775152
C      -2.17105353     -0.05611891      0.00000012
C      -0.69927426      0.08933838     -0.00000018
C       0.11277865      1.13649231     -0.00000181
O       1.44474405      0.74646439     -0.00000002
C       1.41920975     -0.68166118      0.00000011
O       0.04868563     -1.08512558      0.00000279
H      -2.64765059      0.92280372     -0.00000454
H      -2.50868947     -0.60801470     -0.88063108
H      -2.50868997     -0.60800658      0.88063625
H      -0.08484903      2.19217517     -0.00000385
H       1.91496665     -1.06053708     -0.89973507
H       1.91497013     -1.06053695      0.89973330
