9
b3lypvtz=-199154.541660236
C       0.21480686      1.30181015      0.02346690
O      -0.78115901      2.00120891      0.10168951
C       0.12485050     -0.13808245     -0.01098878
N       1.23478084     -0.81788824     -0.09595804
N       2.21139083     -1.40078691     -0.17059733
N      -1.11153780     -0.76114980      0.04485328
H       1.23527654      1.71682351     -0.02534687
H      -1.22514011     -1.75334169      0.02425882
H      -1.90326863     -0.14859347      0.10862252
