17
b3lypvtz=-158014.19757962
C      -2.87522908     -0.04576808      0.17597224
C      -1.49787168     -0.01254796     -0.41181596
C      -0.36158742     -0.03254240      0.27795608
C       1.02116024      0.02781379     -0.31791841
C       1.86314807     -1.18478770      0.07948307
N       1.75835700      1.25298526      0.04732519
H      -3.45143526      0.83701395     -0.11588841
H      -2.84534294     -0.08618759      1.26535033
H      -3.43611186     -0.91443511     -0.18043155
H      -1.44377809      0.02995968     -1.49769677
H      -0.40010038     -0.07464699      1.36628455
H       0.92305053      0.03636409     -1.40742388
H       2.85942858     -1.11058477     -0.35695436
H       1.39639632     -2.11153932     -0.25435357
H       1.97217301     -1.23923291      1.16645613
H       1.94491785      1.25836449      1.04560799
H       1.18339110      2.06747856     -0.13865867
