9
b3lypvtz=-175864.22499567
C      -1.40522816     -1.27027478     -0.00004165
N      -1.31850355     -0.00407741      0.00009557
C      -0.04979012      0.62184021     -0.00002070
N       0.09686088      1.87935564      0.00019512
C       1.14129628     -0.21472367     -0.00007162
N       2.02910133     -0.94732895     -0.00012745
H      -0.54482865     -1.94364997     -0.00015112
H      -2.39511021     -1.71646371     -0.00007387
H      -0.82659779      2.31802263      0.00025972
