7
b3lypvtz=-177488.92285182
C      -1.74090556     -0.03508313      0.20223570
O      -2.39987420     -0.98436099     -0.13982412
C      -0.29169617     -0.02774085      0.17920723
C       0.91461687      0.01122247      0.17231084
C       2.27983101      0.04855621      0.16197906
N       3.43535066      0.08437624      0.15480153
H      -2.19732260      0.90303005      0.55997415
