14
b3lypvtz=-188217.93122332
C       2.15412327     -0.70107706      0.01117320
N       1.30908410      0.48047277     -0.07540983
C      -0.06320444      0.33875103      0.00233042
N      -0.76522140      1.53171300      0.06612690
N      -0.58740578     -0.83778019      0.02712232
N      -2.03911141     -0.77344909     -0.02793599
H       1.90039828     -1.38931861     -0.79199676
H       3.19190893     -0.39105607     -0.10549477
H       2.03936647     -1.23981188      0.95657042
H       1.65215535      1.27992990      0.43402789
H      -0.37185570      2.27148750     -0.49619352
H      -1.74665322      1.36117879     -0.12154930
H      -2.37047911     -1.01080541      0.90435166
H      -2.31476435     -1.56103468     -0.60481664
