12
b3lypvtz=-168980.50397995
O       2.09172578     -0.02735393      0.00000846
C       0.88295309      0.01321912      0.00001311
C       0.02972738      1.22166645      0.00000915
C      -1.26046194      0.87887722      0.00001582
C      -1.47981869     -0.61155690      0.00002127
C      -0.05831999     -1.19847510      0.00003655
H       0.43759650      2.22162368      0.00000010
H      -2.08811523      1.57664803      0.00001383
H      -2.06252356     -0.91676926      0.87322097
H      -2.06250419     -0.91677406     -0.87319000
H       0.15148285     -1.81279688     -0.87601509
H       0.15147800     -1.81274837      0.87612382
