12
b3lypvtz=-192285.91700388
C       1.05588845      1.44286952     -0.25055691
C       0.67818463      0.18879660     -0.00271049
C       1.64232065     -0.93769397      0.22438705
C      -0.77044081     -0.21365937     -0.02678705
O      -1.12972306     -1.32602893     -0.30173678
O      -1.68510494      0.74241308      0.27507951
H       0.35120088      2.23322522     -0.47775570
H       2.10210308      1.71775006     -0.27847263
H       1.47454673     -1.40481693      1.19693114
H       1.48884765     -1.71675421     -0.52295608
H       2.67217464     -0.58858061      0.17519444
H      -1.23823089      1.53550353      0.59328349
