12
b3lypvtz=-215554.61581019
O       2.79244624      0.42010020      0.47154615
C       1.73785820     -0.26691531     -0.05303049
C       0.58081577      0.25339521     -0.45349888
O      -0.36772254     -0.53400054     -1.06800469
C      -1.61645953     -0.61372138     -0.40184450
O      -2.31212891      0.60380366     -0.35640902
H       2.58711549      1.36159448      0.49981119
H       1.94339645     -1.32453375     -0.14146869
H       0.36708068      1.31800294     -0.39451623
H      -1.46186040     -1.01350024      0.60720332
H      -2.21003182     -1.29987997     -1.00089104
H      -2.04040963      1.09565470      0.42390288
