10
b3lypvtz=-217417.76301818
C       0.12913523     -0.37377834      0.00528913
C      -1.13741975      0.05112565     -0.03850543
O      -2.13935653     -0.75549458     -0.45233751
C       1.22673786      0.46864194      0.44547438
N       2.45500304      0.22960608      0.54626720
F       0.81941845      1.71585683      0.79939456
H       0.36800469     -1.38482483     -0.29553816
H      -1.40638887      1.05784459      0.25635515
H      -2.97763565     -0.28589546     -0.41847183
H       2.66250155     -0.72308189      0.26096823
