14
b3lypvtz=-169684.26091892
O       2.55600139      0.62343317     -0.03019509
C       1.60281861     -0.43582766     -0.02788065
C       0.23941310      0.00753677     -0.49584069
C      -0.73251602      0.55893814      0.51058153
C      -2.00225142      0.29087699     -0.23170601
C      -0.96701673     -0.77980575     -0.08880693
H       2.20385374      1.34484425      0.50057180
H       2.00849374     -1.18792232     -0.70579544
H       1.52395112     -0.89503637      0.96647184
H       0.24222231      0.45626981     -1.48982598
H      -0.58044007      0.82173968      1.54386683
H      -2.90315737      0.18175381      0.36120889
H      -2.15918648      0.75400187     -1.20399720
H      -1.03208592     -1.74090242      0.39134708
