14
b3lypvtz=-167304.43142744
C       1.23863320      1.38292766      0.63463660
C       0.66817603      0.22379512      0.31925070
C      -0.77894459     -0.24648445      0.11146384
C      -0.13501819     -1.44512454     -0.64439955
N       1.16101800     -1.02986444     -0.06585043
N      -1.74474654      0.54938221     -0.61029142
H       2.31188443      1.51844702      0.63216993
H       0.62541678      2.22881451      0.91089713
H      -1.22963701     -0.57458750      1.04843018
H      -0.45673966     -2.45089112     -0.37342421
H      -0.20602856     -1.31472317     -1.72810565
H       2.03535387     -1.13572714     -0.55961600
H      -2.19268031      1.22062904      0.00062519
H      -1.29668743      1.07340680     -1.35319961
