13
b3lypvtz=-208115.68222447
C       2.31267983     -0.72743696     -0.00000853
C       1.08053388      0.14945172      0.00006483
O       1.15396804      1.35821582     -0.00003407
C      -0.26046414     -0.56239283      0.00005939
C      -1.43856022      0.39076707     -0.00000365
F      -2.62198018     -0.35168266     -0.00008407
H       3.20621243     -0.10841624     -0.00006028
H       2.31509254     -1.37835696     -0.87740826
H       2.31522299     -1.37842120      0.87734126
H      -0.31120888     -1.22163528      0.87211978
H      -0.31113678     -1.22163384     -0.87200826
H      -1.43954926      1.02610309      0.88521509
H      -1.43943425      1.02611527     -0.88521324
