12
b3lypvtz=-166527.56918923
C       0.54998365      0.47528586      0.82140595
C      -0.83263867     -0.16248885      0.73346376
C      -1.42818926      0.03236527     -0.59146058
N      -0.40878657     -1.04541634     -0.44466002
C       0.87206903     -0.36340519     -0.41741401
N       1.83598947     -0.58735807     -1.18551036
H       1.12749325      0.14948397      1.68624861
H       0.61044623      1.56086093      0.73491224
H      -1.37451609     -0.59233207      1.56335210
H      -2.41712724     -0.36597130     -0.77252520
H      -1.17321199      0.90574222     -1.18147017
H       2.63848818     -0.00676643     -0.94634230
