12
b3lypvtz=-192256.93749941
C       0.66216666      1.19263591     -0.07706380
C      -0.66169910      1.19289301      0.07706358
O      -1.42337130      0.05278366      0.13604367
C      -0.70097210     -1.10008407     -0.29481181
C       0.70053931     -1.10034950      0.29481602
O       1.42339615      0.05223113     -0.13603991
H       1.23896226      2.10000475     -0.16172537
H      -1.23814064      2.10048760      0.16172900
H      -0.64235409     -1.10292860     -1.38788527
H      -1.26728856     -1.96969436      0.03570589
H       0.64192251     -1.10317212      1.38788946
H       1.26651189     -1.97018242     -0.03570545
