11
b3lypvtz=-202357.64194493
C      -2.17572203     -0.35734120     -0.00001447
C      -0.77536088      0.18708546     -0.00001163
O      -0.47828079      1.35105489     -0.00000845
O       0.12594458     -0.84508198     -0.00000318
C       1.51463448     -0.65397853      0.00000755
N       2.19028521      0.39555295      0.00000794
H      -2.32960963     -0.98484626      0.87831937
H      -2.32959930     -0.98487558     -0.87832891
H      -2.88283731      0.46639364     -0.00003124
H       1.96663311     -1.64090077      0.00001337
H       1.61175855      1.23188136      0.00000064
