8
b3lypvtz=-188341.07841389
N      -2.04087192     -1.06462015      0.00000844
C      -1.13108007     -0.35923189      0.00000751
C      -0.02091791      0.56802626      0.00002103
N      -0.13325784      1.83373308     -0.00000136
C       1.37534532     -0.00755461      0.00003351
O       1.60418728     -1.18461716     -0.00005045
H      -1.10669519      2.13979652     -0.00003285
H       2.15436031      0.77423895      0.00001817
