15
b3lypvtz=-178147.1225465
C       2.57950283     -0.31542722      0.03584557
N       1.29590267      0.37518060      0.00555593
N       0.23359223     -0.56628507     -0.00995961
C      -0.93168923     -0.03359279      0.00404369
C      -2.14180219     -0.91526574     -0.01648399
N      -1.14293737      1.33741232     -0.02034251
H       3.37564680      0.42635693     -0.03857731
H       2.68306222     -0.83628617      0.98679402
H       2.69306015     -1.04962586     -0.77022557
H       1.23929787      0.94900665     -0.83421094
H      -2.74688123     -0.72744179     -0.90686375
H      -1.83022246     -1.95594689     -0.01522513
H      -2.77442342     -0.72991710      0.85634078
H      -0.37976003      1.86026441      0.39186667
H      -2.05271383      1.64302171      0.28604212
