11
b3lypvtz=-179033.27642806
C      -1.12562904     -1.01566287      0.34801616
C      -0.52778496      0.13893030      0.05680257
C       0.95354244      0.28552166     -0.19579384
O       1.57637642     -0.97719252     -0.07097348
C      -1.27563814      1.35578375     -0.03907538
N      -1.83998790      2.35749310     -0.12594262
H      -2.19079695     -1.06651858      0.51996240
H      -0.54473699     -1.92289352      0.41589024
H       1.36027382      1.00933892      0.52185145
H       1.09651017      0.70922049     -1.19799368
H       2.51787114     -0.87402073     -0.23274380
