17
b3lypvtz=-158003.7179706
C      -2.59453988      0.62414108     -0.07898841
N      -1.29484171      0.13393352     -0.51369269
C      -0.50343711     -0.45802052      0.55781371
C       0.88269136     -0.88938163      0.06311139
C       1.74438704      0.25651519     -0.37864883
C       2.97342446      0.49660074      0.06102309
H      -3.21139471     -0.13015503      0.43541979
H      -2.45706612      1.46064701      0.60939879
H      -3.15480538      0.99309006     -0.93862592
H      -1.41656429     -0.54483876     -1.25633890
H      -1.00479872     -1.32311780      1.02395808
H      -0.38839728      0.29450430      1.34319655
H       1.38680182     -1.45137843      0.85284642
H       0.74424763     -1.58671037     -0.77323279
H       1.29347292      0.92651547     -1.10287864
H       3.45423361     -0.14608044      0.79026951
H       3.54658637      1.34373560     -0.29279731
