15
b3lypvtz=-157232.08221487
C      -2.44131723      0.45163641     -0.21245262
N      -1.61944267     -0.22717938      0.45847607
C      -0.44331558     -0.75416331     -0.21676331
C       0.82299158     -0.28110187      0.45945671
C       2.11994069     -0.27782113     -0.30079415
C       1.45043459      1.02419640      0.05871507
H      -2.32088017      0.66165541     -1.28356537
H      -3.32506886      0.85875003      0.27472970
H      -0.42214256     -0.48292250     -1.28369304
H      -0.49750904     -1.84546267     -0.15366723
H       0.87738538     -0.53655865      1.51007027
H       3.02267386     -0.55459827      0.22569541
H       2.10168684     -0.58428212     -1.33842800
H       1.89810086      1.63799611      0.82768987
H       0.98037031      1.58464756     -0.73898937
