16
b3lypvtz=-196395.93939937
C       2.15855731     -0.94075228     -0.03472164
C       1.01798569      0.01731914      0.32652644
N       1.20914341      1.38919776     -0.16847245
C      -0.33010796     -0.51700643     -0.16871633
C      -1.51019808      0.31767731      0.28783799
F      -2.69898594     -0.26610826     -0.16617400
H       2.00414733     -1.93222108      0.39704064
H       2.23669852     -1.05504536     -1.11911160
H       3.11376194     -0.55996901      0.33210688
H       0.97122678      0.09227254      1.41809593
H       1.32037045      1.38119124     -1.17790502
H       2.06098733      1.78659166      0.21077899
H      -0.46742137     -1.54117218      0.18535334
H      -0.32665169     -0.55914836     -1.26293882
H      -1.56591686      0.36338293      1.37851389
H      -1.46307888      1.33143338     -0.10548323
