11
b3lypvtz=-233245.73190504
C       2.70040871      0.00018525     -0.12224444
N       1.37237266      0.00052589      0.48465885
C       0.36889143     -0.00041150     -0.27417290
C      -1.00923733      0.00010203      0.32006736
F      -1.69662450     -1.09925174     -0.11851166
F      -1.69668451      1.09863853     -0.12046361
H       3.45597830     -0.00228012      0.66002118
H       2.84674948     -0.88396832     -0.74785467
H       2.84853413      0.88702515     -0.74359537
H       0.40631580     -0.00161081     -1.37102517
H      -0.99304117      0.00106864      1.40911843
