14
b3lypvtz=-167283.03741437
C       1.87818040     -0.65837897     -0.10693174
N       1.74439944      0.79475201      0.07487286
C       0.61572676     -0.08723961      0.41870671
C      -0.61572721     -0.08723976     -0.41870661
C      -1.87818083     -0.65837891      0.10693209
N      -1.74439986      0.79475200     -0.07487306
H       2.57616239     -1.14273262      0.56415258
H       1.86456540     -1.06119644     -1.11334908
H       1.56955834      1.24621364     -0.81799653
H       0.43327666     -0.14852399      1.48815137
H      -0.43327712     -0.14852453     -1.48815125
H      -1.86456581     -1.06119604      1.11334957
H      -2.57616285     -1.14273275     -0.56415207
H      -1.56955871      1.24621396      0.81799617
