14
b3lypvtz=-193022.34443922
O       2.85383273      0.99537930     -0.33074428
C       1.77913334      0.17727792     -0.51318391
C       0.49383321      0.50433287     -0.40728648
C      -0.63593568     -0.46040123     -0.62585272
C      -1.42060434     -0.79611342      0.64761942
O      -2.02311381      0.34460426      1.25148064
H       2.54756975      1.88317236     -0.11218182
H       2.10350132     -0.82262325     -0.77487842
H       0.23118183      1.53053720     -0.16056759
H      -0.25096886     -1.39475499     -1.04496478
H      -1.33866765     -0.04841824     -1.35651331
H      -0.76606668     -1.31181901      1.35965907
H      -2.24372476     -1.46932355      0.40374859
H      -1.32987043      0.86814980      1.66376558
