9
b3lypvtz=-199109.30151532
C       0.23170756      0.76966052     -0.07645645
C       1.18265749     -0.04166600      0.36717568
O       0.94104122     -1.27443926      0.88055330
N      -0.58894211     -1.68681651      0.91974681
N      -1.39616042     -0.88601103      0.49351790
N      -1.10463752      0.31350565     -0.00433326
H       0.40137318      1.74891495     -0.48657715
H       2.23290910      0.21752726      0.35450123
H      -1.89994851      0.83932443     -0.31033704
