14
b3lypvtz=-169703.40957759
C       1.62249433     -0.21917022      0.12227869
C       0.38987163      0.55402187     -0.32258303
C      -0.50975111      1.13464123      0.75477749
C      -1.56416550      0.36753771      0.46618484
C      -0.88716829     -0.30778354     -0.70928315
O      -0.78204025     -1.71597681     -0.73434387
H       2.39143146      0.45889904      0.49797809
H       2.04710582     -0.78430168     -0.70909455
H       1.39013674     -0.92249011      0.92475734
H       0.67036305      1.27047015     -1.10147421
H      -0.35174124      1.93124808      1.47147886
H      -2.56474933      0.28731205      0.87173385
H      -1.29732183     -0.03269771     -1.68213533
H      -0.55446548     -2.02171005      0.14972498
