13
b3lypvtz=-179760.5306538025
C      -2.21136101      0.18683781      0.82736639
C      -1.14402123      0.96907234      0.57121704
C       0.20776250      0.55150111      0.41299620
N       0.55645269     -0.69531558      0.10596052
C       1.79650227     -1.21426432     -0.03334478
O       1.21458061      1.45522150      0.54385448
H      -3.20804190      0.60125983      0.84471498
H      -2.12362086     -0.87102560      1.04262135
H      -1.28239846      2.03987793      0.46986693
H      -0.22647084     -1.28919917     -0.14102195
H       1.87615599     -2.21506184     -0.41453360
H       2.62106460     -0.73054220      0.45949780
H       1.92339563      1.21163818     -0.07962596
