10
b3lypvtz=-189106.43177067
N      -2.36069766     -0.59962466     -0.35600389
C      -1.35163458     -0.21096151      0.03918004
C      -0.05866870      0.31704439      0.52306374
N       0.36763612      1.56230185     -0.07415509
C       0.99083490     -0.78466482      0.29986931
O       1.93563267     -0.64152819     -0.42101837
H      -0.15537360      0.42955622      1.61072825
H      -0.40717093      2.19132170     -0.23225126
H       0.84413918      1.38613248     -0.95074357
H       0.79781161     -1.72378646      0.84791083
