16
b3lypvtz=-170479.82468392
C       2.39455162      0.67898799     -0.33293715
C       1.55548955      0.01503111      0.45222894
C       0.57457601     -1.02811057      0.00202082
C      -0.87837405     -0.73557313      0.40978815
C      -1.46538431      0.48694360     -0.27375501
O      -2.81948290      0.62009356      0.15657615
H       3.08518467      1.41144679      0.06409915
H       2.42504225      0.50954813     -1.40331646
H       1.56326785      0.22089722      1.52032615
H       0.85887784     -1.98928190      0.44295706
H       0.64239534     -1.15309302     -1.08243345
H      -1.50432638     -1.59774406      0.16923923
H      -0.94153445     -0.59531219      1.49235890
H      -0.88519521      1.38005068     -0.01733095
H      -1.41451291      0.36115299     -1.36351604
H      -3.19047493      1.41496281     -0.23610549
