13
b3lypvtz=-156496.19759405
C      -2.79720002     -0.29757364     -0.31669544
C      -1.77390398      0.27593851      0.30230768
C      -0.39821172     -0.31073598      0.41271470
C       0.66246628      0.59015535     -0.25938208
C       2.01518084      0.05965911     -0.12305179
N       3.07336984     -0.37647090     -0.00546330
H      -2.70181504     -1.26459734     -0.79664055
H      -3.76967614      0.17441427     -0.36005816
H      -1.91628132      1.24589381      0.77199627
H      -0.37115048     -1.30218215     -0.04091687
H      -0.12820291     -0.43237071      1.46515745
H       0.43830291      0.70307518     -1.32196725
H       0.64000274      1.59131248      0.17746635
