15
b3lypvtz=-180586.12951972
C      -1.33869193     -1.27527380      0.08127959
C      -0.61394322     -0.03664778     -0.46116198
C      -1.37039336      1.25225996     -0.11924546
C       0.79393166      0.02569559      0.13368788
N       1.82009321     -0.08150282     -0.75736541
O       0.98808250      0.15796203      1.32833760
H      -0.82269287     -2.19563204     -0.19737507
H      -1.38926656     -1.23251930      1.16908313
H      -2.35509957     -1.32450063     -0.31239644
H      -0.54038725     -0.12240448     -1.54951423
H      -2.38703576      1.21319988     -0.51339920
H      -1.42045598      1.38038438      0.96163550
H      -0.87688800      2.12971192     -0.54070957
H       1.66611606     -0.18838858     -1.74258460
H       2.76353607     -0.05098832     -0.40932073
