17
b3lypvtz=-181304.60050163
C       2.78678014     -0.44367728     -0.06096412
N       1.40130446     -0.33345251      0.36720856
C       0.70309975      0.80603682     -0.20645141
C      -0.75368491      0.80805009      0.20724286
O      -1.37537426     -0.34550951     -0.33799058
C      -2.72453509     -0.48574474      0.05006194
H       3.22916795     -1.34823819      0.35724884
H       3.35822980      0.40742841      0.31725683
H       2.91889248     -0.47037342     -1.15472818
H       0.89297812     -1.17480218      0.12428860
H       0.75882794      0.83432570     -1.30796571
H       1.16862612      1.72642972      0.15973822
H      -1.25100299      1.71578712     -0.16094915
H      -0.82952039      0.79255665      1.30225727
H      -3.33082722      0.36449808     -0.28758678
H      -2.82382826     -0.57089384      1.13938399
H      -3.10473564     -1.39508891     -0.41235618
