10
b3lypvtz=-189080.91706604
C      -0.97991934      0.89538928      0.07290557
C       0.27730161      1.31109795      0.07102014
O       1.30130902      0.40129792     -0.23442716
C       0.94397126     -0.88658470      0.10037857
N      -0.22847117     -1.35377909      0.13149878
N      -1.25129412     -0.45246365     -0.24195781
H      -1.81051361      1.53908307      0.31911433
H       0.62940571      2.29749484      0.31811372
H       1.78860613     -1.51219145      0.34993397
H      -2.12470149     -0.79697719      0.12555389
