16
b3lypvtz=-168066.31766887
C      -1.14899715      1.29680693     -0.03504430
C      -0.41784345     -0.03782142     -0.00284562
N      -1.39144569     -1.11411810     -0.07501572
C       0.72325430     -0.14508518     -1.05057340
N       1.76391798     -0.03926764      0.01089534
C       0.72030977     -0.08456461      1.07230831
H      -0.44346068      2.12900225     -0.03680686
H      -1.79211800      1.40905915      0.84247171
H      -1.77277682      1.36619377     -0.92720110
H      -0.94521387     -2.01774634      0.03284365
H      -2.08545762     -1.03101921      0.65946512
H       0.74209810      0.63749063     -1.81221451
H       0.75577673     -1.11456314     -1.55417708
H       2.24056140      0.85214638     -0.01325709
H       0.75293620     -1.02477829      1.63050973
H       0.74029981      0.74241085      1.78657683
