14
b3lypvtz=-190641.03329748
C      -2.56433788     -0.33870784      0.01070717
C      -1.28548353      0.47168521      0.00224853
O      -0.18723236     -0.44378875     -0.01234336
C       1.07587826      0.07461609     -0.00295802
N       1.44319284      1.29032339      0.02059740
N       1.98348792     -0.95829566     -0.06404545
H      -2.61382799     -0.97513077      0.89426008
H      -3.42671227      0.32924955      0.01871107
H      -2.62673840     -0.97162598     -0.87438154
H      -1.21862402      1.10769765      0.88978076
H      -1.23580543      1.11317692     -0.88232544
H       0.66879378      1.94096675     -0.00479915
H       2.92130573     -0.69258257      0.18383135
H       1.67008635     -1.84289700      0.29835261
