10
b3lypvtz=-212403.89067904
N      -1.77101442     -0.92062259      0.60447940
N      -1.54688040      0.04465063     -0.33826986
C      -0.36729251      0.41049691     -0.59279999
O       0.71488285     -0.10403213      0.12667794
C       1.96479151      0.32733661     -0.18333597
O       2.24486456      1.12352152     -1.02805344
H      -2.70930891     -0.84079398      0.96184860
H      -1.07348944     -0.98651423      1.33705918
H      -0.13550123      1.12745326     -1.36207996
H       2.67904802     -0.18149600      0.47457411
