12
b3lypvtz=-189880.76868485
N       2.05221613      0.00502564     -0.06237006
C       0.69085751      0.10806090     -0.00046418
N       0.00637673      1.17780397      0.05434647
C      -1.39889396      0.77002835     -0.02439598
C      -1.36329908     -0.77699115      0.03732509
O       0.04662557     -1.09413234     -0.05949524
H       2.44208559     -0.85405268      0.28775285
H       2.54402555      0.84142985      0.20293207
H      -1.84698760      1.13183878     -0.95402217
H      -1.97174268      1.19898810      0.79963619
H      -1.73653982     -1.17746571      0.98073264
H      -1.87727993     -1.26674471     -0.78784068
