9
b3lypvtz=-201577.36630618
N      -2.01167461     -0.12892391     -0.00000591
C      -0.76410912     -0.03442859     -0.00000866
O       0.07174084     -1.11750579     -0.00000120
C       1.36533310     -0.63254999      0.00000114
C       1.33363358      0.69099412     -0.00000019
O       0.01198904      1.10548836      0.00000166
H      -2.45146633      0.78476437     -0.00000484
H       2.16231714     -1.35104992      0.00000602
H       2.09352335      1.44867636     -0.00001002
