16
b3lypvtz=-193780.32691284
C      -2.00340973     -0.84371543      0.09748170
O      -1.31913833      0.36534596     -0.19635876
C       0.00422551      0.40029712      0.23580825
C       0.52584088      1.80609262      0.00848576
O       0.74522172     -0.56450045     -0.50308403
C       1.90919315     -1.03990166      0.14116046
H      -3.03154226     -0.70945089     -0.23175053
H      -1.99707601     -1.04650225      1.17542876
H      -1.56055411     -1.69162912     -0.42773041
H       0.05865639      0.12415785      1.30405296
H      -0.04704187      2.52208959      0.59719392
H       0.43017569      2.05636953     -1.04753410
H       1.57447053      1.87967375      0.29659722
H       2.31962220     -1.82998627     -0.48496878
H       2.66974633     -0.25950406      0.25796469
H       1.68199490     -1.45394031      1.13146690
