14
b3lypvtz=-167285.31262567
C      -2.58728787      0.08571224     -0.29702682
N      -1.50768445      0.27182793      0.35129701
N      -0.45667887     -0.55245454      0.13517436
C       0.83041698     -0.06762275      0.53952914
C       2.03253491     -0.53717200     -0.21530429
C       1.61011413      0.91096771     -0.30130894
H      -3.43196705      0.72238302     -0.07284242
H      -2.70366503     -0.69160991     -1.05757516
H      -0.47487198     -1.08943261     -0.72736420
H       0.92203596      0.02797475      1.61359925
H       2.92170133     -0.79215333      0.34336156
H       1.87048047     -1.15674586     -1.08831368
H       1.15466838      1.24532380     -1.22316158
H       2.21036809      1.65555855      0.20311778
