14
b3lypvtz=-169697.38849241
C      -1.94862982      0.30046814      0.25785067
C      -0.49901601      0.09601328     -0.02408693
C       0.57713802      1.15432467     -0.32343881
C       1.64632027      0.17059473      0.26287270
C       0.51461685     -0.82678075      0.51620730
O      -0.11144230     -1.08388404     -0.75139250
H      -2.40961424     -0.63276621      0.58099961
H      -2.46928690      0.64415245     -0.63954306
H      -2.09078812      1.05171473      1.03683510
H       0.47016298      2.05803333      0.27606537
H       0.67458972      1.42155494     -1.37519262
H       2.42200513     -0.17776336     -0.41810498
H       2.10342775      0.54697072      1.17739430
H       0.44122868     -1.60463162      1.26473284
