14
b3lypvtz=-146387.23464068
C      -1.97040354     -0.31901413      0.10101723
C      -0.50473005     -0.27098109      0.45419689
C       0.16916098      1.02549513      0.77618923
C       0.49215662      0.31722766     -0.53058111
C       1.77483708     -0.29282850     -0.72623787
C       2.84861690     -0.80692017     -0.88820108
H      -2.20388465     -1.19596190     -0.50597819
H      -2.26882234      0.56698711     -0.46303683
H      -2.58749398     -0.36072924      1.00134699
H      -0.13566966     -1.13242254      0.99661352
H      -0.41257643      1.93518930      0.70697763
H       0.94037262      1.03561369      1.53259732
H       0.06151549      0.75831353     -1.42190047
H       3.79692095     -1.25996886     -1.03300328
