15
b3lypvtz=-157232.19738169
C       2.42579216      0.15727797     -0.35052749
C       1.51500838     -0.65066656      0.17841405
C       0.13694977     -0.25162075      0.55287029
N      -0.29268923      1.12252971      0.24463068
C      -0.93467913      0.00395062     -0.45540824
C      -2.37262104     -0.35141084     -0.18377814
H       3.40968135     -0.20419431     -0.61746672
H       2.20348327      1.20148867     -0.52642489
H       1.75670623     -1.69463684      0.35670064
H      -0.21751829     -0.68039426      1.48676722
H      -0.89874799      1.47106978      0.98077460
H      -0.63374210     -0.05846218     -1.49625440
H      -3.04794991      0.34418494     -0.68765675
H      -2.60352482     -1.35621461     -0.54392834
H      -2.59201166     -0.31898032      0.88590249
