11
b3lypvtz=-179037.42451041
C      -1.66262442     -0.62662119     -0.05053814
C      -0.58877248      0.12907028      0.14339939
O      -0.70632612      1.46895921      0.37535205
C       0.81497687     -0.43845944      0.22233334
C       1.77143640      0.32997302     -0.57457241
N       2.49618492      0.98652360     -1.18087699
H      -2.64901437     -0.18736970     -0.06272213
H      -1.56995814     -1.69315356     -0.18195533
H       0.11391844      1.92755631      0.15732994
H       1.16152877     -0.42037897      1.26074393
H       0.81865013     -1.47609954     -0.10839365
