13
b3lypvtz=-184799.265596
C      -2.50646710     -0.02344466     -0.00000359
C      -1.34794792     -0.68261492      0.00000518
C      -0.03890310     -0.05992658      0.00000577
F      -0.06768897      1.29922039     -0.00000687
C       1.13754693     -0.68774368      0.00000860
C       2.47850671     -0.03096113      0.00000150
H      -3.44818943     -0.55361853     -0.00000308
H      -2.54141370      1.05687816     -0.00001031
H      -1.33476394     -1.76618162      0.00001241
H       1.09951740     -1.76999118      0.00001618
H       3.05922266     -0.33009021     -0.87691642
H       3.05921927     -0.33006241      0.87693127
H       2.39413621      1.05351837     -0.00001564
