10
b3lypvtz=-189109.4207238
C       1.43210518     -0.08063301      0.34915703
N       0.19884027     -0.82514348      0.13857861
C      -0.88767236     -0.23634399     -0.09556270
C      -1.05492857      1.20155762     -0.18345874
N      -1.08271887      2.35104449     -0.23306990
O      -2.04860169     -0.89446937     -0.29611889
H       1.69590573      0.51817753     -0.52609534
H       2.23641982     -0.78752711      0.53676839
H       1.35632236      0.59250613      1.20691329
H      -1.84567188     -1.83916883     -0.22010945
