14
b3lypvtz=-169697.32931827
O       1.67198922     -0.60759545      1.05440173
C       1.06275371      0.14104201      0.01532679
C       0.03165329      1.18364506      0.52630867
C      -1.02652617      0.53881611     -0.37348852
C      -1.20803425     -0.89637439      0.00600708
C      -0.02224487     -0.52326594     -0.83565401
H       2.21761228     -1.29622546      0.66111497
H       1.82248847      0.61216905     -0.61526991
H      -0.16907912      1.14042724      1.59745036
H       0.29597900      2.20314004      0.25225653
H      -1.74849799      1.07174922     -0.97459277
H      -1.06269784     -1.20924466      1.03330313
H      -1.98988376     -1.42729508     -0.52056634
H       0.12438804     -0.93098776     -1.82649770
