8
b3lypvtz=-234932.91173919
C      -1.00062965      0.03867895      0.54686125
O      -1.28016391      0.79853181      1.42393881
O      -1.86627379     -0.60385277     -0.25326564
O       0.24060728     -0.35832760      0.14662932
N       1.27426066      0.26653984      0.93496571
N       2.33716226     -0.13864635      0.51583467
H      -2.75011387     -0.32735573      0.02437282
H       3.04515102      0.32443187      1.09699618
