16
b3lypvtz=-168067.33338081
C       1.40349469     -1.45150197     -0.16668083
C       0.22542791     -0.73293067      0.44345406
C       0.12188874      0.79383712      0.46626055
N       1.09098550      1.68136962     -0.12521465
C      -0.79573830     -0.02947854     -0.40120031
N      -2.20586861     -0.21538621     -0.15701016
H       2.20047576     -1.59759272      0.56668574
H       1.11505167     -2.43521835     -0.54274139
H       1.82667215     -0.89137458     -1.00155409
H      -0.17800854     -1.21503010      1.32908022
H      -0.33838042      1.20209720      1.35996022
H       2.01510766      1.56040078      0.27149636
H       1.16493006      1.55151518     -1.12488779
H      -0.56400060      0.00521986     -1.46277341
H      -2.71432755      0.65254931     -0.28448996
H      -2.37146710     -0.52240894      0.79301443
