13
b3lypvtz=-156452.90673829
C       2.71324320     -0.36363905     -0.16254705
C       1.57544333     -0.14868730      0.15796931
C       0.21699097      0.10611224      0.53665276
C      -0.55514498      1.25977994     -0.08311568
C      -0.91731723     -0.14512355     -0.44191796
N      -2.13572135     -0.67305221      0.11162045
H       3.71889064     -0.55317321     -0.44235956
H      -0.03085963     -0.11103092      1.56773490
H      -1.23153978      1.78955933      0.57228787
H      -0.04144560      1.86238330     -0.81765073
H      -0.59865839     -0.48078681     -1.42571129
H      -2.12184119     -1.68604430      0.12450908
H      -2.93662597     -0.38612244     -0.43904609
