11
b3lypvtz=-176592.5595982
C       2.90034053      0.24181087     -0.00009239
C       1.75048058     -0.43518340     -0.00003642
C       0.46332514      0.22743277      0.00014122
N      -0.62666565     -0.44747757      0.00020199
N      -1.73384304      0.43376671      0.00020189
N      -2.79244797     -0.20395261      0.00024235
H       3.85647742     -0.26279460     -0.00011717
H       2.91725127      1.32500763     -0.00010816
H       1.73350124     -1.51813987     -0.00011578
H       0.43692300      1.31958356      0.00020299
H      -3.53538452      0.50629552      0.00041248
