10
b3lypvtz=-189116.91579735526
C       0.63735023     -0.99597690      0.36369809
N      -0.73248854     -0.85486690      0.49877255
C      -1.10756253      0.40876408      0.34619786
N       0.00589199      1.11870953      0.10878099
C       1.19293797      0.27708372      0.10299702
O       2.32001768      0.71378537     -0.09375293
H       1.12301554     -1.94711465      0.45527205
H      -1.37176836     -1.60640494      0.68828466
H      -2.11507546      0.77491670      0.40494662
H       0.04768148      2.11110398     -0.04954685
