12
b3lypvtz=-194876.07181384
C      -1.04031776      1.46658823     -0.00000317
C      -0.67435747      0.18410826     -0.00002675
C      -1.66478404     -0.94775818      0.00008909
C       0.75648358     -0.18868318     -0.00012150
N       1.30034184     -1.31883274      0.00008210
F       1.58119734      0.88059728     -0.00004666
H      -0.31230033      2.26343735     -0.00009940
H      -2.08568036      1.74553188      0.00010966
H      -1.54214103     -1.58331092      0.88047607
H      -1.54229855     -1.58334347     -0.88029505
H      -2.68356351     -0.56553892      0.00017115
H       0.60878730     -2.06177659      0.00006047
