12
b3lypvtz=-168917.9808938
C       2.76097509      0.43968715      0.07561177
C       1.71212850     -0.12120679     -0.07795384
C       0.42374797     -0.78474960     -0.24448872
C      -0.70090672     -0.04808672      0.45825972
C      -1.56376862      0.89628214     -0.24912103
O      -2.02238434     -0.42427109      0.07486069
H       3.69349681      0.92947629      0.20495755
H       0.17919164     -0.87613812     -1.30560359
H       0.48239657     -1.80268671      0.15257097
H      -0.56362778      0.08400308      1.52793832
H      -2.04687233      1.70022428      0.29587063
H      -1.39598980      1.08105310     -1.30547648
