10
b3lypvtz=-212434.41150366
N       1.36077529     -1.24245305     -0.08492791
C       0.76292558     -0.12360245     -0.00347802
N       1.30557256      1.13300221      0.11352335
C      -0.76121155     -0.16420474      0.01478169
O      -1.42921752     -1.14995301      0.11117624
O      -1.29469090      1.08378340     -0.10361937
H       2.37431973     -1.12844000     -0.09169025
H       2.28549535      1.24676085     -0.08123040
H       0.71592551      1.93019636     -0.04862547
H      -2.25690506      0.97789442     -0.08456986
