9
b3lypvtz=-196765.83661201
N       0.94294111      0.13474177     -0.10398838
C       0.39024796      0.79445006      0.96467527
N      -0.49199890      0.30471617      1.80957137
N      -0.81475892      1.33203349      2.64396271
N      -0.17465907      2.39864607      2.35506939
N       0.60566877      2.08568999      1.27942221
H       1.17056663      2.78893320      0.83536641
H       0.74887441     -0.85509171     -0.08412470
H       1.91101802      0.33518097     -0.30075428
