17
b3lypvtz=-158013.35219885
C      -2.73836158     -0.04243561      0.21558333
C      -1.54719249     -0.07878797     -0.38946928
N      -0.35396678     -0.52996640      0.14252653
C       0.92045153      0.01538367     -0.32593873
C       2.05055647     -0.93340553      0.06649906
C       1.17944195      1.44377053      0.17015134
H      -2.86648872     -0.32851588      1.25223389
H      -3.61938615      0.25174487     -0.33325019
H      -1.46300195      0.22347440     -1.42893335
H      -0.38086958     -0.70610177      1.13770200
H       0.85400019      0.03797912     -1.41776792
H       2.12474641     -1.01618080      1.15441802
H       1.87694608     -1.93036393     -0.33763002
H       3.01039607     -0.56864340     -0.30111999
H       0.35906288      2.10681525     -0.10663968
H       2.10229053      1.84617440     -0.25270117
H       1.27309514      1.46146406      1.25910317
