10
b3lypvtz=-186660.11468859
C      -0.66991199     -1.23203408     -0.09744649
C      -1.39713935     -0.11811542     -0.10042220
N      -0.65137941      1.06466437     -0.30304989
N       0.55791985      1.09537713      0.47967427
N       1.22639174      0.07192201      0.48201736
N       0.71342159     -1.02582272     -0.29767291
H      -1.03382728     -2.21298009      0.16608848
H      -2.44228276     -0.05563333      0.16013327
H      -1.14879960      1.91772080     -0.09495552
H       1.29390721     -1.82359868     -0.08546638
