10
b3lypvtz=-186710.40084427
N      -2.05246889     -0.16795214      0.00004720
C      -0.78434641     -0.02306890     -0.00003354
N       0.13394564     -1.07316262     -0.00009687
H      -0.14366100     -2.03753462     -0.00004435
C       1.40355832     -0.55629497      0.00008014
N       1.40790680      0.73315026     -0.00016495
N       0.06666424      1.06806481     -0.00007975
H      -0.19963897      2.03412138      0.00034992
H      -2.53709374      0.72290786      0.00014175
H       2.29363601     -1.16160705      0.00028745
