11
b3lypvtz=-230658.22489641
O      -1.97747954      0.83637120     -0.14215650
C      -1.67173471     -0.30517792     -0.34994771
O      -0.56786348     -0.92281414      0.09540297
C       0.33080049     -0.13768956      0.90925565
C       1.30682806      0.65669225      0.07730293
F       2.18236020     -0.19379855     -0.58971459
H      -2.26321594     -1.01614189     -0.93997140
H      -0.24443976      0.53947087      1.54052410
H       0.86005814     -0.86292423      1.52347721
H       1.89527680      1.30481172      0.73168597
H       0.79191374      1.26635124     -0.66531361
