12
b3lypvtz=-192273.11281739
O      -1.67947881      1.63372579      0.07319263
C      -0.86938543      0.74602993      0.08332989
C       0.62756666      0.85585241      0.35562553
C       1.14814572     -0.49725347     -0.12285947
O       0.06425030     -1.41437244      0.09171214
C      -1.14250010     -0.72992433     -0.19666922
H       0.76690133      0.97614315      1.43319458
H       1.05419471      1.72437006     -0.14268996
H       1.40911124     -0.46378522     -1.18816771
H       2.00460400     -0.87153316      0.43311109
H      -1.94530246     -1.11782789      0.43008070
H      -1.43830716     -0.84132483     -1.24996022
