14
b3lypvtz=-167288.50290893487
C      -2.37164222     -0.29349230     -0.10864625
C      -1.52303194      0.89930467      0.11701110
N      -0.21608255      0.81664562      0.03579167
N       0.47523185     -0.26630308     -0.23883578
C       1.83100606     -0.05237608     -0.25697866
C       2.74345678     -1.00068115     -0.51116138
H      -2.20218198     -0.71219805     -1.10597536
H      -3.42497978     -0.04295733     -0.00192690
H      -2.12036435     -1.09282453      0.59606303
H      -1.91602399      1.87435870      0.35356873
H       0.30514351      1.68268956      0.20380944
H       2.17709692      0.96784933     -0.04774761
H       2.44674569     -2.01834711     -0.72205820
H       3.79562600     -0.76166823     -0.50925600
