13
b3lypvtz=-156461.45655487
C       2.49506693      0.29758091     -0.02330516
C       1.43551014     -0.51810460      0.01992906
C       0.04722641     -0.13584609      0.05247752
C      -0.69699612      0.99403358      0.03245703
N      -1.95671910      0.36960295     -0.14412852
C      -1.23898463     -0.94432233     -0.00311045
H       3.50217623     -0.09488432     -0.02392718
H       2.39032841      1.37496101     -0.05900621
H       1.61704312     -1.58897485      0.04840977
H      -0.51505484      2.05982697      0.06050839
H      -2.68187027      0.56873998      0.53784955
H      -1.49865292     -1.47645220      0.91350304
H      -1.38261539     -1.59621699     -0.86642685
