9
b3lypvtz=-199178.43508119442
C       0.76053867      0.72239141      0.25357448
N       1.58610269     -0.27889563      0.31079086
N       2.27646473     -1.17367697      0.35154653
C      -0.66461940      0.55675551     -0.07653725
O      -1.39811139      1.52881367     -0.11743385
N      -1.10908500     -0.71112993     -0.32790362
H       1.15569924      1.70240607      0.45910588
H      -2.08193409     -0.82062911     -0.55266574
H      -0.52505545     -1.52603503     -0.30047729
