12
b3lypvtz=-168962.2859617495
C      -2.10466246      0.26753080      0.02253764
C      -0.72945118     -0.02006585     -0.51966139
C       0.38941442      0.00377165      0.20943982
C       1.72028708     -0.27338437     -0.31137235
C       2.81760439     -0.24622164      0.41616937
O       3.79080614     -0.22459474      1.05015706
H      -2.85986706      0.17960410     -0.75770395
H      -2.38080990     -0.42551899      0.82113787
H      -2.17804669      1.27811646      0.43213594
H      -0.65552613     -0.26148086     -1.57533761
H       0.32818069      0.24398095      1.26666562
H       1.86207070     -0.52173750     -1.35646105
