13
b3lypvtz=-203105.04523005
C      -1.12878725     -0.31150813     -0.89403019
C      -0.29530203      0.38936219      0.17390101
O      -0.93667326      0.16102832      1.41755557
C       1.14623289     -0.11992322      0.18400706
N       1.65750951     -0.91330230      1.01705428
O       1.92163349      0.33994179     -0.83640720
H      -2.13636505      0.10202970     -0.90838227
H      -0.68638685     -0.19239872     -1.88342609
H      -1.18947124     -1.37637494     -0.67017387
H      -0.26693179      1.46856737     -0.04076261
H      -0.47360635      0.65531553      2.10247449
H       0.95075378     -1.19325864      1.69383161
H       1.43739416      0.99052105     -1.35574180
