12
b3lypvtz=-166549.64915801
N      -2.62642828      0.01408828     -0.27864444
C      -1.52716775     -0.01695276      0.06031758
C      -0.13393904     -0.03126146      0.50154122
C       0.81824766      1.08229033     -0.01881203
C       1.84805033     -0.05110087     -0.22201703
N       0.73506199     -1.03114610     -0.15708473
H      -0.12568527     -0.07828179      1.59650886
H       0.47015339      1.50967700     -0.95506357
H       1.06315775      1.87390757      0.68319505
H       2.39913354     -0.06483187     -1.16176425
H       2.55688513     -0.12070359      0.60946246
H       0.90230154     -1.87759773      0.37229288
