14
b3lypvtz=-169716.60302076
O       2.33364214      0.26841469      1.23767836
C       2.17343848      0.07899384      0.06008254
C       0.86840535     -0.31173301     -0.59039069
C      -0.31331850     -0.37575782      0.34049981
C      -1.71292931     -0.34115346     -0.21074077
C      -1.17422898      0.83691168      0.55855938
H       3.02699739      0.17208977     -0.64592483
H       0.69075440      0.38983823     -1.41461816
H       1.04781441     -1.27823707     -1.08205611
H      -0.15501085     -0.99873964      1.21085333
H      -2.46319176     -0.96148155      0.25941212
H      -1.83519696     -0.23404925     -1.28073633
H      -1.55453104      1.02051931      1.55325077
H      -0.93264478      1.73438428      0.00423058
