12
b3lypvtz=-166568.33233643
N      -2.86246040     -0.79597781     -0.16552257
C      -1.98102360     -0.06324938     -0.06389666
C      -0.85129963      0.86069426      0.08545361
C       0.42976604      0.17053408      0.47509244
C       1.51487687      0.16972465     -0.30301383
N       2.70044602     -0.50472160     -0.06716962
H      -1.14287490      1.60889080      0.82977386
H      -0.72417268      1.39451275     -0.85908805
H       0.43246753     -0.35584985      1.42304075
H       1.49534605      0.69128279     -1.25450398
H       3.52887921     -0.09557234     -0.46620728
H       2.84536948     -0.83908937      0.87265033
