17
b3lypvtz=-158001.98207232
N       2.82918789      0.02080629     -0.19852871
C       1.50296114      0.40722817      0.28680062
C       0.35534806     -0.55609504     -0.04637506
C      -0.98271594     -0.10417209      0.49309772
C      -1.83358981      0.86472918     -0.28549525
C      -2.26642196     -0.57112073     -0.13674388
H       2.82296649     -0.07036102     -1.20834086
H       3.08918547     -0.88760146      0.16937013
H       1.27336058      1.39697789     -0.11544505
H       1.56808139      0.52976973      1.37161468
H       0.59832839     -1.54798129      0.35188677
H       0.28886346     -0.66997266     -1.13413738
H      -1.01102492      0.01496171      1.57086418
H      -1.47293574      1.18381191     -1.25483645
H      -2.38240770      1.62403008      0.25420608
H      -2.19615021     -1.21232603     -1.00558343
H      -3.10824358     -0.78751966      0.50649490
