12
b3lypvtz=-189841.1028572
C       2.64290414      0.03714204      0.34461600
N       1.59144342     -0.67209783      0.37447095
N       0.43615518      0.06136734      0.04279616
C      -0.62410629     -0.63779646      0.07085849
C      -1.93369326     -0.00105200     -0.25807017
O      -1.83540134      1.36359316     -0.57659571
H       2.62827488      1.09573526      0.08763974
H       3.58407493     -0.44268705      0.58645088
H      -0.60038060     -1.69667129      0.33065653
H      -2.38324079     -0.55667510     -1.09353943
H      -2.60834828     -0.14567897      0.59797228
H      -0.89778197      1.59482091     -0.50725572
