13
b3lypvtz=-179798.3011142
O       2.28372762     -1.12280015     -0.69511611
C       2.10277976      0.05543896     -0.48376032
N       0.93823553      0.60841568     -0.04473950
C      -0.21016509     -0.17011567      0.32159937
C      -1.56908848      0.41212338      0.05556120
C      -1.07291600     -0.75288900     -0.75879490
H       2.88574276      0.82020596     -0.64202239
H       0.95485336      1.58462796      0.20299093
H      -0.08733292     -0.76381882      1.21959140
H      -1.61119340      1.37786841     -0.42978654
H      -2.34289985      0.24471086      0.79092988
H      -1.49890970     -1.73015667     -0.58430813
H      -0.77273359     -0.56351090     -1.77864488
