13
b3lypvtz=-179804.96200803
C      -0.95190138      1.58388341     -0.00142477
C      -0.08150323      0.35563441      0.00655200
C      -0.74910639     -0.93140531      0.00894248
O      -1.95686785     -1.08713657     -0.00931594
C       1.27333577      0.45951698      0.01283219
N       2.21599684     -0.52681760     -0.04827218
H      -0.35280918      2.49484390      0.01584301
H      -1.58860155      1.60871497     -0.88804442
H      -1.62283571      1.59553660      0.85955140
H      -0.09417711     -1.82971546      0.03419774
H       1.70811102      1.45334066      0.02720481
H       1.95335740     -1.48780314      0.08068897
H       3.15662337     -0.29925084      0.21755072
