15
b3lypvtz=-180550.86563337
C       1.20779310      0.71917847     -0.21739995
C       1.17880915     -0.74908992      0.19816753
O      -0.00000465     -1.39179600     -0.27360712
C      -1.17881413     -0.74908196      0.19816752
C      -1.20778816      0.71918662     -0.21739998
N       0.00000492      1.44571745      0.18414289
H       2.08320387      1.21760187      0.20464716
H       1.28977937      0.77796315     -1.30683070
H       2.01964401     -1.30177343     -0.22357668
H       1.22976131     -0.82809108      1.29542619
H      -2.01965273     -1.30175980     -0.22357668
H      -1.22976682     -0.82808277      1.29542619
H      -2.08319559      1.21761593      0.20464710
H      -1.28977399      0.77797184     -1.30683073
H       0.00000534      1.57297366      1.19084226
