15
b3lypvtz=-157259.32061901
C      -0.62394526     -1.27307891     -0.05674101
N       0.63397452     -1.36122408      0.05245804
C       1.43624595     -0.13900913      0.12764561
C       0.73548280      1.14403454     -0.32150731
C      -0.65954454      1.22395947      0.29821454
C      -1.46114567     -0.01659824     -0.09904209
H      -1.17438242     -2.21409716     -0.12487999
H       1.77621319     -0.04617873      1.16506283
H       2.33798213     -0.31301995     -0.46349291
H       0.64893532      1.14754212     -1.41264180
H       1.33968500      2.01229848     -0.04974928
H      -1.17945956      2.13312751     -0.00812763
H      -0.56870039      1.26453721      1.38764239
H      -1.86407474      0.08889572     -1.11360141
H      -2.33233732     -0.15513285      0.54726200
