17
b3lypvtz=-158013.83521172
C       2.05201174     -1.08123259      0.11445454
C       1.11291385     -0.13850195     -0.04436148
C       1.46218661      1.32359914     -0.09885784
N      -0.23313532     -0.45322317     -0.24519696
C      -1.30452837      0.35720386      0.32597079
C      -2.66229637     -0.17802796     -0.10749708
H       1.79956315     -2.13286530      0.16846698
H       3.09803709     -0.82019970      0.15859281
H       2.54154355      1.45301043     -0.07126212
H       1.03706980      1.87333100      0.74416968
H       1.07886362      1.78325141     -1.01313776
H      -0.41017641     -1.44255664     -0.13898815
H      -1.19194566      1.38373652     -0.02410023
H      -1.25625115      0.38913181      1.42480788
H      -2.81217574     -1.20232320      0.24271834
H      -3.46598097      0.43174427      0.30652506
H      -2.74916041     -0.17674892     -1.19456648
