12
b3lypvtz=-166564.37181667
C       2.70161555     -0.47829661     -0.02831183
C       1.40555128      0.18089568      0.30675894
N       0.41093034      0.14781254     -0.47248995
C      -0.79709782      0.84133482     -0.04475198
C      -1.93722958     -0.07806701      0.02193483
N      -2.83786228     -0.78915430      0.09265934
H       2.64429289     -0.96457972     -0.99931090
H       3.51024825      0.25722767     -0.03534377
H       2.95605340     -1.21817346      0.73500373
H       1.35779647      0.70231722      1.27405222
H      -0.69532555      1.33457280      0.93204394
H      -1.03558795      1.61212336     -0.78237559
