9
b3lypvtz=-175869.91745414
N       2.01046798      0.11945548     -0.00001675
C       0.75081412      0.01313180     -0.00003475
C      -0.22370662      1.14447262     -0.00002683
N      -1.42231635      0.69495444     -0.00000775
C      -1.23723622     -0.73811307      0.00000017
N      -0.03384659     -1.17646969      0.00001555
H       2.43849220     -0.80948028      0.00002119
H       0.03238792      2.19484866      0.00002007
H      -2.11085945     -1.37547697      0.00010209
