13
b3lypvtz=-156445.1526602
C       2.92494679     -0.00497752      0.11949022
C       1.81024742     -0.26408534      0.47792657
C       0.44664064     -0.57579942      0.89936611
C      -0.60095987     -0.21819859     -0.14033107
C      -1.95795684      0.18438580      0.29156731
N      -1.04096094      1.16812786     -0.31074079
H       3.91142892      0.22470592     -0.19709720
H       0.22682030     -0.04827423      1.83342144
H       0.37758515     -1.64447289      1.12706471
H      -0.49321589     -0.75169190     -1.07822225
H      -2.15208213      0.23753978      1.35711895
H      -2.82073104     -0.06684101     -0.31231968
H      -0.63186250      1.75938154      0.40635570
