12
b3lypvtz=-166579.63329888
N       0.99100243      0.23495448     -0.00142005
C       0.32835359      0.51725885     -1.21805578
C      -0.37451261     -0.25105325     -2.11936946
C      -0.85266481      0.61792561     -3.13941070
C      -0.42259083      1.88639089     -2.83763141
N       0.29075862      1.81310393     -1.66707630
H       0.67469274      2.58525268     -1.15181988
H       0.50896851     -0.48149873      0.52355625
H       1.94763242     -0.06910231     -0.14138969
H      -0.51785042     -1.31703561     -2.05596313
H      -1.43731951      0.34042188     -4.00037319
H      -0.56027013      2.82078156     -3.35254667
