10
b3lypvtz=-214797.67204673
C      -0.91004669     -0.05203245      0.32871774
C       0.43617616     -0.45620972     -0.19336302
C       1.68571627      0.03202148      0.35696132
O       2.57464742      0.03369006      1.14096308
O       1.30188243      0.71404684     -0.71807159
O      -1.84986244      0.14348575     -0.71314867
H      -0.81328926      0.83356348      0.96483005
H      -1.29733709     -0.86612756      0.94516563
H       0.45136876     -1.29307366     -0.88311717
H      -1.57925555      0.91063576     -1.22893737
