10
b3lypvtz=-186698.97742335
C      -2.09410461     -0.02895745     -0.00001720
C      -0.60687766     -0.01484446     -0.00001612
N       0.15754523     -1.10074442     -0.00005017
N       1.36904803     -0.56515969     -0.00005925
H       2.21231708     -1.11724298      0.00000304
N       1.38944508      0.75413726      0.00004435
N       0.13752402      1.12222547      0.00004371
H      -2.46549862      0.99309490     -0.00009440
H      -2.47862839     -0.54426578      0.88047942
H      -2.47862116     -0.54440285     -0.88043540
