13
b3lypvtz=-203125.4801953
C       2.44077875     -0.00632474      0.00001819
N       1.12631815     -0.61253849     -0.00010810
C      -0.01753128      0.11750826     -0.00003906
O      -0.09244720      1.32703391      0.00005988
O      -1.09509408     -0.71409395     -0.00017252
C      -2.36760842     -0.05617094     -0.00016428
H       2.31007638      1.07253280      0.00042049
H       3.00956784     -0.29110720     -0.88771708
H       3.00967039     -0.29176654      0.88747247
H       1.03251858     -1.61292353     -0.00018771
H      -2.48117762      0.56704997     -0.88614065
H      -2.48156586      0.56627014      0.88631507
H      -3.10727162     -0.85215669     -0.00066669
