19
b3lypvtz=-158774.35412256
C      -2.99960079     -0.31189822     -0.10245536
C      -1.52677588     -0.41327973      0.29501510
C      -0.69190994      0.76763976     -0.20746355
C       0.76882589      0.75022651      0.23776501
N       1.51410004     -0.36334356     -0.33888136
C       2.92477791     -0.36311965      0.02140927
H      -3.45499527      0.59436913      0.30330626
H      -3.57292477     -1.16480119      0.26465452
H      -3.11215287     -0.27881097     -1.18831353
H      -1.12018095     -1.35015133     -0.09703488
H      -1.44621897     -0.47328389      1.38552824
H      -0.72362330      0.79840513     -1.30030762
H      -1.14652567      1.69742014      0.14912914
H       0.81545407      0.76032854      1.34195047
H       1.25302482      1.67257151     -0.09587334
H       1.09590983     -1.23949235     -0.05302417
H       3.41093511     -1.24617928     -0.39469181
H       3.11261409     -0.34625335      1.10719646
H       3.41123265      0.51516180     -0.40885685
