11
b3lypvtz=-179002.88653329
C      -1.80255051     -0.35183310     -0.10134767
O      -0.43534267     -0.55656006     -0.44536167
C       0.48224017      0.27325886      0.12418446
N       0.29924116      1.22776169      0.93729523
C       1.80638611     -0.06614136     -0.32686580
C       2.90850868     -0.34935176     -0.70293794
H      -2.36123195     -1.10330527     -0.65135872
H      -2.14054907      0.64358505     -0.39900942
H      -1.96549559     -0.48862681      0.97029637
H      -0.67949678      1.36431396      1.17565386
H       3.88839045     -0.59300119     -1.03054869
