11
b3lypvtz=-204911.02590453
N      -2.90177773      0.20820997     -0.21510777
N      -1.88611958     -0.44367755      0.09727603
C      -0.69792930      0.30398226     -0.01937474
C       0.46325564     -0.26142217      0.30583862
C       1.76992560      0.44958435      0.26717991
F       2.70361771     -0.30837116     -0.44308348
H      -3.70447395     -0.42551776     -0.10239942
H      -0.79144542      1.32766351     -0.37429258
H       0.46895285     -1.29217566      0.64121643
H       2.16891917      0.58364531      1.27699983
H       1.68751400      1.42508988     -0.21446881
