13
b3lypvtz=-179794.7528807
C       2.30994433     -0.16104116      0.20029971
C       0.99234734      0.15602437     -0.42824200
N      -0.06208259     -0.48292157     -0.15237697
C      -1.29310933     -0.10014009     -0.80994081
C      -2.40710401      0.10425507      0.20101930
O      -3.34977558      0.82771093      0.01732521
H       2.20985697     -0.98482140      0.90366683
H       3.04293902     -0.42594628     -0.56653342
H       2.70392687      0.71602954      0.72070799
H       0.98542678      0.98232865     -1.15429581
H      -1.61949920     -0.93591075     -1.44333321
H      -1.21804570      0.79031344     -1.44678016
H      -2.29482489     -0.48578076      1.13198335
