14
b3lypvtz=-169675.13435210256
C      -0.61618939     -1.48796051     -0.08076004
C      -0.45039618     -0.01856700      0.25202459
C      -1.11437542      1.08083484     -0.50660455
C      -1.57205954      0.84818135      0.68309620
O       0.80378497      0.23624416      0.87365100
C       1.86260661      0.49163129     -0.02730379
H      -1.58983749     -1.67894870     -0.53088548
H      -0.52471709     -2.09059601      0.82492301
H       0.15153976     -1.82588127     -0.78038228
H      -1.16279156      1.66020189     -1.41218621
H      -2.26285740      1.08949762      1.47188967
H       2.75584664      0.67041056      0.56937960
H       2.05339902     -0.35522636     -0.69690550
H       1.66604706      1.38017814     -0.63993624
