14
b3lypvtz=-146425.47177359
C       1.25286775      0.72338174      0.10838502
C       0.11205473      1.41936922      0.06679939
C      -1.19149211      0.72813685     -0.24150103
C      -1.19149875     -0.72812599      0.24150091
C       0.11204178     -1.41937027     -0.06679949
C       1.25286115     -0.72339320     -0.10838516
H       2.19804497      1.22281219      0.28191275
H       0.11540551      2.49555786      0.18958795
H      -1.34848544      0.75536680     -1.32923510
H      -2.03146358      1.26931047      0.19736086
H      -1.34849236     -0.75535453      1.32923498
H      -2.03147514     -1.26929193     -0.19736102
H       0.11538270     -2.49555893     -0.18958815
H       2.19803381     -1.22283226     -0.28191292
