10
b3lypvtz=-212375.76627546
N      -1.60465221     -1.16649424     -0.52848196
C      -1.64195881     -0.51049519      0.53391205
O      -0.69778982      0.34027245      1.10319409
C       0.50675636      0.61628632      0.55630363
N       0.92926385      0.13751144     -0.53962620
O       2.21974016      0.63257938     -0.81207218
H      -0.73269887     -1.03855777     -1.03730678
H      -2.49385276     -0.52473056      1.20546971
H       1.08162192      1.30367616      1.16819856
H       2.43357018      0.20995201     -1.64969094
