12
b3lypvtz=-189878.4155055
N      -2.15173760      0.70881817     -0.64181272
C      -0.90411985      0.48350326     -0.08073762
C      -0.22606087     -0.66938622     -0.10946366
N       1.12898442     -0.75927052      0.28470514
C       2.15273370      0.00253436     -0.19980809
O       3.29838420     -0.05599774      0.19182612
H      -2.72422171      1.38452757     -0.16159528
H      -2.67193920     -0.11562646     -0.90200175
H      -0.44024342      1.36348847      0.34960523
H      -0.67709769     -1.57772585     -0.49687510
H       1.39910576     -1.45122969      0.96970875
H       1.81631224      0.68636464     -0.99765101
