14
b3lypvtz=-167296.46380788
N       2.87406836      0.34705722     -0.49724926
C       2.00360526     -0.51938360      0.30866576
C       0.57991514     -0.16237655      0.32915576
C      -0.57991653      0.16251188      0.32909198
C      -2.00360254      0.51950278      0.30845909
N      -2.87407113     -0.34724897     -0.49712687
H       2.54633999      0.35865373     -1.45666975
H       2.80178941      1.30230652     -0.16506630
H       2.11335198     -1.54296696     -0.05828875
H       2.38865663     -0.52612123      1.33132390
H      -2.38865327      0.52663283      1.33111455
H      -2.11335601      1.54294604     -0.05888486
H      -2.80185719     -1.30236003     -0.16453089
H      -2.54628310     -0.35928767     -1.45652136
