16
b3lypvtz=-147181.72192573
C      -2.55574414     -0.80503764     -0.12552311
C      -1.67265340      0.36143903      0.34079354
C      -0.30949007      0.34349862     -0.27743096
C       0.84589896      0.25809806      0.38974491
C       2.15486564      0.23376965     -0.23741428
C       3.31200741      0.15004622      0.42291223
H      -3.55283838     -0.73935433      0.31279018
H      -2.12022357     -1.76312664      0.16171185
H      -2.66809382     -0.80353948     -1.21157988
H      -2.17231683      1.30172047      0.08118879
H      -1.58298562      0.34754581      1.42953343
H      -0.27815379      0.39313233     -1.36408094
H       0.82756900      0.20401850      1.47563749
H       2.16830616      0.28891897     -1.32241773
H       4.26101345      0.13539035     -0.09495314
H       3.34283898      0.09348008      1.50456279
