17
b3lypvtz=-181315.80794634
C       0.53868066      1.77951156     -0.02297721
C      -0.02064409      0.37462982     -0.25818758
C       0.83497093     -0.70246632      0.41769997
N       2.17735616     -0.76942049     -0.17964429
C      -1.47819105      0.29184621      0.20297924
O      -2.11928945     -0.94318408     -0.11207829
H       1.58968030      1.81926310     -0.30341260
H       0.46324674      2.05359887      1.03317106
H      -0.00508439      2.52940696     -0.60102167
H      -0.00952400      0.17797418     -1.33980072
H       0.29414616     -1.65428900      0.38451790
H       0.95572398     -0.43948348      1.47302967
H       2.12711878     -1.19087026     -1.10061654
H       2.77850980     -1.36789534      0.37389890
H      -1.52784407      0.37395347      1.29146618
H      -2.04349526      1.13510692     -0.21094127
H      -2.19759221     -1.00798509     -1.06891177
