12
b3lypvtz=-192268.01515006
C      -2.76582457     -0.14291703      0.00000034
C      -1.50579402      0.30440152     -0.00000231
C      -0.32471227     -0.52777488      0.00000045
C       0.93045964     -0.04950496     -0.00000032
O       2.06553173     -0.79895229     -0.00000104
O       1.22544057      1.26440431      0.00000093
H      -3.60357870      0.53980393     -0.00000228
H      -2.99592633     -1.20185886      0.00000541
H      -1.33126111      1.37491166     -0.00000708
H      -0.44895176     -1.60418277      0.00000443
H       1.83429386     -1.73397264     -0.00001027
H       2.18495197      1.36089901     -0.00001627
