15
b3lypvtz=-157252.80187489
C       2.52543426     -0.14056071      0.06588627
C       1.31984248     -0.69797658     -0.05889872
C       0.03393071     -0.00090946     -0.02599037
N       0.08126858      1.39531759      0.05510606
C      -1.11242202     -0.71037657     -0.00990410
C      -2.49587382     -0.13921811      0.02667476
H       3.42337200     -0.74056648      0.01728748
H       2.66087409      0.91760041      0.24716179
H       1.24734375     -1.76952958     -0.20373958
H       0.80958698      1.81354629     -0.50514898
H      -0.80233087      1.85447593     -0.10072058
H      -1.02192905     -1.78815669      0.01593581
H      -2.84583522      0.03890281      1.04979849
H      -3.21097245     -0.81890343     -0.43888892
H      -2.56769442      0.81486358     -0.50382541
