12
b3lypvtz=-168945.31388871
C       2.68471599     -0.44371476     -0.00004322
C       1.53720314     -0.08871180      0.00013686
C       0.14040169      0.32908788      0.00015325
O      -0.15824498      1.50278844      0.00029168
C      -0.87462128     -0.79545441     -0.00003088
C      -2.31944652     -0.31536686      0.00001587
H       3.70425940     -0.74206296     -0.00011199
H      -0.65929180     -1.42706748     -0.86837999
H      -0.65932091     -1.42732905      0.86813479
H      -3.00145813     -1.16572602     -0.00012454
H      -2.52957239      0.29481758     -0.87765036
H      -2.52960323      0.29455244      0.87785952
