10
b3lypvtz=-186673.15466804
N      -2.85278281      0.11480350      0.00020244
C      -1.71166191     -0.42237241     -0.00012554
N      -0.51328534      0.35396577     -0.00024279
N       0.51328990     -0.35397776     -0.00023661
C       1.71166083      0.42236980     -0.00012790
N       2.85278748     -0.11479450      0.00019454
H      -2.75848861      1.13392601      0.00027356
H      -1.58307191     -1.50437075     -0.00012076
H       1.58304813      1.50436730     -0.00013763
H       2.75850625     -1.13391796      0.00027567
