14
b3lypvtz=-146361.27395878
C       1.57252460     -0.39137655      0.07804412
C       0.98797814      1.07364393      0.02092566
C      -0.33684980      0.43459791     -0.34138075
C      -1.79421900      0.29475722     -0.16579016
C      -0.85404193     -0.58067913      0.64694470
C       0.19527977     -0.96241792     -0.34347274
H       2.35485109     -0.56594101     -0.65765334
H       1.93155091     -0.70827057      1.05798237
H       1.43669927      1.65915942     -0.78222444
H       1.01549409      1.65832930      0.94253075
H      -2.31897977      1.05976420      0.39867914
H      -2.38863134     -0.13802348     -0.96794424
H      -0.71049081     -0.45918643      1.71076266
H       0.05815180     -1.73277889     -1.09669173
