15
b3lypvtz=-180561.09738869
C      -2.35177863     -0.08600929      0.54396346
C      -1.32581585     -0.47868535     -0.52739217
C       0.05230466      0.01807521     -0.23294643
O       0.14924007      1.37284942     -0.19369754
C       1.12596427     -0.75172334     -0.01531540
N       2.37671682     -0.09594562      0.26010465
H      -2.39595998      0.99615346      0.66046078
H      -3.34655702     -0.44106927      0.27142631
H      -2.09016801     -0.51971414      1.51048359
H      -1.63878820     -0.06825954     -1.49239865
H      -1.28860980     -1.56353409     -0.63621605
H       1.08689678      1.54650360      0.01054595
H       1.05118911     -1.83219198     -0.04897022
H       2.74499938     -0.34260165      1.17148216
H       3.08882840     -0.32882941     -0.42233041
