14
b3lypvtz=-169722.5356522
C      -2.28138686     -0.38602628     -0.00007645
C      -0.99710478     -0.00086060     -0.00006555
O      -0.62635835      1.31798235     -0.00012835
C       0.09794410     -0.96699390      0.00001622
C       1.42411306     -0.78342708      0.00001282
C       2.23255101      0.47566138     -0.00007872
H      -3.09205944      0.33138776     -0.00013575
H      -2.54085674     -1.43271067     -0.00002900
H      -1.42092919      1.86232224     -0.00021870
H      -0.25600329     -1.99092235      0.00009075
H       2.01775181     -1.69340079      0.00008598
H       1.62416789      1.37226504     -0.00015023
H       2.89018895      0.49633892      0.87444894
H       2.89019781      0.49620497     -0.87460296
