13
b3lypvtz=-179776.61131826
C      -1.53059607      1.11468904      0.10171520
C      -1.16963672     -0.33778464      0.21728023
O      -0.42430530     -0.92831211     -0.85482722
C       0.20623181     -0.84571795      0.42242841
C       1.39122680      0.05088340      0.53161040
N       1.90395826      0.73584776     -0.40008054
H      -0.67109004      1.72893424     -0.16041755
H      -2.29667320      1.24618130     -0.66460868
H      -1.94037844      1.47362334      1.04808698
H      -1.96747018     -0.98109648      0.58231842
H       0.31051379     -1.79719166      0.94107747
H       1.84682693      0.09602034      1.52375038
H       1.38388536      0.57555241     -1.26768350
