12
b3lypvtz=-194871.44385617
C      -2.22514178     -0.79103882      0.00010062
C      -1.09640102     -0.08334802      0.00147827
F      -1.19392823      1.27654649      0.00036338
C       0.26131598     -0.56789055      0.00860226
C       1.33670154      0.23984758      0.00464852
N       2.65018903     -0.16237259     -0.05858870
H      -2.18756182     -1.86924458      0.00043952
H      -3.18595891     -0.30046699     -0.00193086
H       0.38151731     -1.64477210      0.01065914
H       1.19713954      1.31274424      0.00148104
H       3.34370256      0.48191383      0.27932769
H       2.85443281     -1.12659750      0.14805612
