14
b3lypvtz=-190596.13848985
C      -0.81951411      1.28679016      0.03218516
N      -0.47785749     -0.12307267     -0.01213890
C      -1.40376078     -0.99082024     -0.71621696
C       0.84814332     -0.46929882     -0.00927275
N       1.78490840      0.38841383      0.13346922
O       3.03661056     -0.28685538      0.22560583
H      -1.87380973      1.38870367      0.28898831
H      -0.21267935      1.78183165      0.78709397
H      -0.63884013      1.78911525     -0.92667493
H      -2.40212083     -0.88405266     -0.28997929
H      -1.09439404     -2.02935630     -0.60287101
H      -1.46383222     -0.76584027     -1.78974693
H       1.06268399     -1.53218003     -0.09941310
H       3.65446241      0.44662183      0.28873272
