14
b3lypvtz=-167286.72888945
N       0.21139583      1.88611845      0.02750716
C       0.09891434      0.47019591      0.08811253
C       1.05980619     -0.58695646     -0.47333910
N      -0.10605586     -1.39216080     -0.95588780
C      -1.04164715     -0.41057736     -0.39698323
C      -0.83383721     -0.17893319      1.07514892
H       0.56659565      2.19764704     -0.86838671
H       0.81820295      2.24868801      0.75321405
H       1.65755210     -0.22443548     -1.31357594
H       1.72050637     -1.07960129      0.24706655
H      -0.17447366     -2.30532310     -0.51711801
H      -1.95447020     -0.14539352     -0.91274766
H      -0.49383771     -0.99024378      1.71129915
H      -1.52835162      0.51097559      1.53579010
