13
b3lypvtz=-177395.20941982
N      -2.14722801     -1.10669837      0.10705824
C      -2.01258064      0.14884846      0.11838540
C      -0.74477165      0.93628784     -0.13190896
N       0.38532325      0.08886622     -0.41932419
C       1.45667760      0.27722286      0.23189823
N       2.61084482     -0.41141818     -0.01576419
H      -1.24368084     -1.53682488     -0.11143915
H      -2.89422917      0.76237772      0.32405532
H      -0.93880628      1.59763916     -0.98699896
H      -0.58074723      1.60329450      0.73122158
H       1.55930206      1.03699481      1.01661633
H       2.53714944     -1.21946918     -0.61307426
H       3.30764265     -0.45184996      0.70662560
