13
b3lypvtz=-179768.9809097311
C      -1.24172429      0.06327133      0.11646982
C      -0.28822536     -1.07805256     -0.18088220
N       1.13016652     -0.45753782     -0.18202524
H       1.57193961     -0.64055180     -1.08576265
H       1.70604709     -0.94392974      0.50874537
C       0.96710947      0.97466179      0.10423160
C      -0.35959135      1.34002271      0.28500188
O      -0.86918141      2.43294891      0.53545177
H      -1.95287387      0.23187910     -0.69109487
H      -1.80761330     -0.09628501      1.03334090
H      -0.28541889     -1.86362130      0.57057328
H      -0.43058172     -1.53495586     -1.15699653
H       1.85994750      1.57215023      0.14294685
