13
b3lypvtz=-156488.89236721
N       2.74013039      0.48247368     -0.07157862
C       1.75027875     -0.09055793      0.05200296
C       0.48521757     -0.81166216      0.19423260
C      -0.67498931     -0.10468121     -0.48290894
C      -2.07503213     -0.35669992      0.00285506
C      -1.42204612      0.98074063      0.23750945
H       0.61765107     -1.81544664     -0.21822159
H       0.28106809     -0.93447613      1.26083821
H      -0.54805519      0.02497324     -1.54987153
H      -2.20529059     -1.01163867      0.85427420
H      -2.86455840     -0.42367205     -0.73210784
H      -1.76522620      1.82946432     -0.33643559
H      -1.11283093      1.22282585      1.24551963
