8
b3lypvtz=-242522.2685702
N      -2.26992285     -0.02705598     -0.00018458
N      -1.22508994     -0.71106500     -0.00022489
C      -0.04338901      0.01294041     -0.00012254
F      -0.06147349      1.34457176      0.00001871
C       1.10516065     -0.67024998     -0.00003283
F       2.28336810     -0.05936173      0.00021156
H      -3.04851757     -0.69773751     -0.00000932
H       1.13540310     -1.74809996     -0.00001911
