14
b3lypvtz=-216320.75221722
O      -2.14096458      0.67582115     -1.04265429
C      -1.68529494      0.15748505      0.20103665
C      -0.38666972     -0.58008594     -0.02573110
O       0.65126707      0.35535719     -0.24830562
C       1.86438862     -0.23311821     -0.66337510
O       2.77805666      0.76883370     -0.97033046
H      -2.86312955      1.28773139     -0.87813680
H      -2.41374014     -0.54467014      0.62582337
H      -1.51329861      0.95716524      0.92886192
H      -0.49908739     -1.24792746     -0.88992833
H      -0.16490127     -1.19943378      0.85452420
H       1.66676272     -0.89246105     -1.52376255
H       2.31279390     -0.82305344      0.14451238
H       2.39381722      1.31845631     -1.66253426
