11
b3lypvtz=-178944.4685953
N       0.86047340      1.29732131      0.01471089
C      -0.39954094      0.66466779      0.52176445
C      -0.69509658     -0.15220045     -0.77827300
O      -0.78347850     -1.43565435     -0.09068463
C       0.27696338     -0.73040804      0.62249720
C       0.85933744     -0.04757994     -0.64581967
H       0.64901961      2.03177946     -0.66126180
H      -1.09115793      1.14191320      1.21219507
H      -1.35983431      0.04751433     -1.61669487
H       0.77722268     -1.21347148      1.45652167
H       1.63729175     -0.40178182     -1.31825532
