16
b3lypvtz=-196396.26601806
C      -2.52007968     -0.03821268     -0.21218371
C      -1.21680021     -0.69577142      0.24157597
C       0.04259336      0.03549999     -0.23450484
N       0.10356616      1.38819778      0.32549751
C       1.27826794     -0.71882787      0.21393708
F       2.42758935     -0.09149625     -0.28610727
H      -3.38213962     -0.62928781      0.09942051
H      -2.63898943      0.95632435      0.22034422
H      -2.55966425      0.05626520     -1.30000131
H      -1.19621989     -0.74881572      1.33340035
H      -1.18438864     -1.72306928     -0.13293354
H       0.04588180      0.03278356     -1.33627019
H       0.99025880      1.81467674      0.08212882
H      -0.61890311      1.97434074     -0.07357004
H       1.27582806     -1.74309664     -0.16241221
H       1.35715535     -0.71865568      1.30285064
