13
b3lypvtz=-177406.82697962
C       1.76551645      0.77304770      0.06276921
C       0.67066686     -0.25934897     -0.00476550
N       0.85183413     -1.51508289     -0.08041095
C      -0.76233363      0.23442549     -0.00050844
N      -1.11576987      1.46347847     -0.07592217
N      -1.68447812     -0.76075799      0.10369722
H       2.74051189      0.28999013      0.09978541
H       1.73926609      1.42759838     -0.81085173
H       1.65483116      1.40487672      0.94579566
H       1.84221368     -1.75594696     -0.08766492
H      -0.31294028      2.08047894     -0.11269431
H      -1.36536905     -1.70231886     -0.04775559
H      -2.64290031     -0.52386214     -0.08111889
