18
b3lypvtz=-168842.09099617
C      -2.99576253     -0.24284490      0.11900404
C      -1.54513075     -0.39723719     -0.33658272
C      -0.63771993      0.71593292      0.20876425
N       0.75864885      0.69197409     -0.20453879
C       1.55555843     -0.42408366      0.26736622
N       2.93472501     -0.19349969     -0.13962800
H      -3.62861130     -1.03497403     -0.28371823
H      -3.07369857     -0.27948973      1.20813552
H      -3.41288397      0.71260093     -0.20781154
H      -1.49792298     -0.38738807     -1.43043894
H      -1.16562798     -1.37257897     -0.02075419
H      -1.05289342      1.68455963     -0.08537146
H      -0.66230124      0.69493392      1.30355145
H       0.85204374      0.76933344     -1.21072090
H       1.40322480     -0.48302936      1.35599776
H       1.26159402     -1.40084091     -0.14709905
H       3.52178047     -0.98223097      0.10152050
H       3.29963537      0.62827355      0.32778809
