13
b3lypvtz=-179798.31327533
C       1.17198462      1.36408057     -0.26035052
C       0.62312041      0.14939546     -0.13576563
C      -0.72619931     -0.17913278     -0.74229565
C      -1.73810501     -0.40511214      0.36434634
O      -1.75467702     -1.39358308      1.05586919
N       1.21821198     -0.93052040      0.50431218
H       2.13411909      1.59780720      0.17642962
H       0.68317329      2.13689170     -0.83237272
H      -1.05059415      0.63231349     -1.38981363
H      -0.64708430     -1.10109743     -1.32445861
H      -2.45833532      0.41721617      0.54368965
H       1.97326671     -0.69647100      1.13008362
H       0.57111899     -1.59178774      0.91032615
