9
b3lypvtz=-201588.65495689
C       2.14060541     -0.40233521      0.00000351
O       0.73274809     -0.73336435      0.00000669
C      -0.10034193      0.30426308     -0.00000409
O       0.19441889      1.46691570     -0.00001577
C      -1.49210291     -0.16195103      0.00000070
N      -2.60088701     -0.46596078      0.00000384
H       2.38862139      0.17405066      0.88878981
H       2.65647604     -1.35625693      0.00003404
H       2.38862902      0.17399686     -0.88881573
