9
b3lypvtz=-199176.21344038
C      -0.03627953      1.06240643     -0.37160368
C      -0.64276524     -0.17422899     -0.09250874
N       0.25986499     -1.00609240      0.40533513
N       1.36965829     -0.26215934      0.41367799
N       1.24861648      0.97079431     -0.03618899
O      -1.93305699     -0.50696127     -0.28424080
H      -0.45749119      1.96335726     -0.77920230
H       2.24565301     -0.62585224      0.74512122
H      -2.05419981     -1.42126377     -0.00038981
