15
b3lypvtz=-157234.88790386
C       2.47048861     -0.00006074      0.13341746
N       1.36757582     -0.00005060     -0.47879685
C       0.14938471      0.00006096      0.29293031
C      -0.90296104     -1.07806874     -0.07860387
C      -2.00773129      0.00013026      0.05609674
C      -0.90287250      1.07821665     -0.07877859
H       2.55332481      0.00004224      1.22802686
H       3.39900928     -0.00012531     -0.43344588
H       0.34615381      0.00014030      1.37434561
H      -0.95725498     -1.96057259      0.55782382
H      -0.76471709     -1.39035697     -1.11321108
H      -2.46345242      0.00022904      1.04627596
H      -2.80096936      0.00010250     -0.68939590
H      -0.95709403      1.96082814      0.55750587
H      -0.76460333      1.39032585     -1.11343648
