9
b3lypvtz=-199140.83555438
C      -1.31018838     -0.10010859      0.02798750
C       0.17461963     -0.02697805      0.01692594
N       0.88552052      1.04231776     -0.50987787
N       2.10402780      0.80528885     -0.36970132
O       2.22583043     -0.43716333      0.25835099
N       0.98328054     -0.92858062      0.48474992
H      -1.72017094      0.79640245     -0.43039822
H      -1.65755875     -0.97179033     -0.52590185
H      -1.68536083     -0.17938814      1.04786491
