15
b3lypvtz=-180566.57941186
C      -1.97373726      0.59435684     -0.61324623
C      -1.44384132     -0.57207809      0.21913112
C      -0.15230897     -0.24211717      0.99067776
C       1.02850329      0.08745488      0.10171439
N       1.64448430      1.18504754      0.00278212
O       1.45777427     -0.93685415     -0.69152424
H      -2.19863405      1.45590329      0.01931597
H      -2.89109264      0.31659014     -1.13371718
H      -1.24762250      0.91396162     -1.36190606
H      -1.27983222     -1.43788491     -0.42994159
H      -2.19987852     -0.88301072      0.94378490
H      -0.33064356      0.60404538      1.65543528
H       0.11795894     -1.09175499      1.62694973
H       1.23970472      1.87644616      0.62613640
H       0.94508153     -1.73064584     -0.51070935
