15
b3lypvtz=-185558.64046295
C       2.39118532     -0.46090021      0.03321648
C       1.13948228     -0.28793020     -0.37080564
C       0.05897322      0.38974815      0.42866661
C      -0.41209335      1.68798536     -0.24582993
C      -1.11489761     -0.55242983      0.68124877
F      -1.72350969     -0.91480105     -0.52524236
H       3.12620906     -0.95150084     -0.59129792
H       2.72979540     -0.11581755      1.00381372
H       0.83988378     -0.64551523     -1.35140923
H       0.46329302      0.63281787      1.41752651
H      -1.17608966      2.18416804      0.35633919
H      -0.84046954      1.48108329     -1.22668782
H       0.42125484      2.37774574     -0.37704633
H      -0.78670402     -1.47257189      1.16756435
H      -1.87814007     -0.06807365      1.29499059
