12
b3lypvtz=-194840.67209051418
C      -2.46341012      0.10533772      0.07766237
C      -1.20133320     -0.32830826     -0.01681843
C       0.01620209      0.40419942     -0.01510339
N       1.18979556     -0.23397055     -0.12095364
C       2.44180167      0.19927858     -0.14488142
F      -0.99484687     -1.68277006     -0.13583868
H      -2.66700252      1.16035037      0.17281076
H      -3.28623357     -0.59066020      0.05986013
H       0.01889971      1.47792198      0.07067763
H       1.07700477     -1.24028726     -0.19610763
H       2.64049827      1.25455362     -0.06951813
H       3.22862421     -0.52564538     -0.23999204
