12
b3lypvtz=-166563.40221413
C       0.10235736      1.60603754      0.00839528
C      -0.14330348      0.28449912     -0.02041263
C      -1.50430718     -0.18245721     -0.00211523
N      -2.58441489     -0.58193467      0.02784404
N       0.79501342     -0.72756940     -0.10654891
C       2.20316477     -0.43290192      0.04492291
H      -0.71655411      2.30608339      0.01421490
H       1.10732684      1.99795014      0.00904452
H       0.48846904     -1.62732821      0.22211459
H       2.43188784      0.07032832      0.99243519
H       2.54485237      0.20857233     -0.76994347
H       2.76386603     -1.36373644     -0.00208520
