12
b3lypvtz=-189841.24862765
C      -1.94104514     -0.51197330      0.40368960
C      -0.77292867      0.40964348      0.25198167
N      -0.81407924      1.64850179      0.44628142
O       0.33844468     -0.34585090     -0.13496301
N       1.49559465      0.42476445     -0.30619836
C       2.47252062     -0.29890295     -0.65569880
H      -1.72823395     -1.27579295      1.15326383
H      -2.81080736      0.06392386      0.70415259
H      -2.14595935     -1.02465378     -0.53743487
H       0.09602954      2.07586060      0.28499147
H       2.39521975     -1.37366142     -0.79692138
H       3.41524446      0.20814112     -0.81314419
