12
b3lypvtz=-189873.20132221
C       2.15351042     -0.43600209      0.00089814
C       0.77447809      0.15983809      0.00024218
N       0.44930255      1.38261842     -0.00003790
O      -0.14934227     -0.84555285     -0.00002779
C      -1.53260388     -0.64917315      0.00009155
N      -2.20516269      0.40284065      0.00030302
H       2.28552762     -1.06845155      0.87969566
H       2.28615693     -1.06899415     -0.87741089
H       2.91207241      0.34339339      0.00093174
H       1.27456169      1.97407224      0.00025394
H      -1.98446104     -1.63658444     -0.00003032
H      -1.60764784      1.22868244      0.00032068
