14
b3lypvtz=-146389.07637471
C      -1.21284007     -0.66652399     -0.00000133
C      -1.21283982      0.66652421      0.00000179
C       0.27925716      1.02095211      0.00000243
C       0.80921686      0.00000230     -1.06373716
C       0.27925679     -1.02095247     -0.00000250
C       0.80921723     -0.00000283      1.06373691
H      -2.03856330     -1.36062367     -0.00000309
H      -2.03856278      1.36062417      0.00000385
H       0.56856521      2.06856859      0.00000490
H       1.89628843      0.00000231     -1.15931667
H       0.32958665      0.00000474     -2.04174773
H       0.56856445     -2.06856906     -0.00000507
H       1.89628884     -0.00000329      1.15931603
H       0.32958736     -0.00000512      2.04174765
