10
b3lypvtz=-186694.8245029
N       1.25733665     -1.87232351     -0.00323220
C       0.83831476     -0.79794890      0.00073797
C       0.20786719      0.49616168     -0.00694260
N       1.05779816      1.60107084      0.09951195
N      -1.06428639      0.63519232     -0.02558111
N      -1.88202683     -0.45814707     -0.08104041
H       1.88254862      1.54788375     -0.48153178
H       0.55694301      2.46824884     -0.03772011
H      -1.50492307     -1.31988895      0.30445308
H      -2.78570810     -0.23040702      0.30242421
