14
b3lypvtz=-167302.85941581
C       2.27366639     -0.48359687     -0.00000033
C       1.21199992      0.56517134      0.00000914
C      -0.11837548      0.37669829      0.00000071
C      -1.11449717      1.49862152     -0.00000520
N      -0.57178208     -0.96544827     -0.00001889
N      -1.81393104     -1.09042790     -0.00003448
H       2.92005718     -0.36839083     -0.87514912
H       2.92006080     -0.36840536      0.87514727
H       1.85473810     -1.48526098     -0.00000915
H       1.56063228      1.59311468      0.00001135
H      -1.76710025      1.44083488      0.87269421
H      -1.76707683      1.44086348     -0.87272381
H      -0.60518452      2.46083372      0.00001716
H      -2.00359729     -2.10125369     -0.00002685
