14
b3lypvtz=-169696.84636188
C      -1.44438865     -0.17039612     -0.02835515
C      -0.52831975      0.66576619      0.92508642
C       0.64190598      0.40324352     -0.02367708
C      -0.25521606     -0.37134522     -0.97067103
C       0.86742893     -1.06259002     -0.22844095
O       1.59595985      1.35728628     -0.35811202
H      -2.24733666      0.42339223     -0.46105618
H      -1.86807334     -1.08415595      0.39219787
H      -0.80639781      1.71843046      0.92985446
H      -0.41612090      0.31856411      1.95467772
H      -0.28506210     -0.35259871     -2.05048176
H       0.64986956     -1.78642606      0.55131140
H       1.72945264     -1.29599255     -0.83973447
H       2.36629831      1.23682183      0.20740080
