13
b3lypvtz=-179780.60078504
C      -2.17818818      0.00000025      0.20430583
N      -0.88000526      0.00000018     -0.43514387
C       0.07145666     -1.07458320     -0.06575673
C       1.15601686      0.00000006      0.03694539
O       2.34484824     -0.00000004      0.13901536
C       0.07145678      1.07458345     -0.06575672
H      -2.74240547     -0.88079029     -0.10458219
H      -2.74240537      0.88079087     -0.10458215
H      -2.11629085      0.00000020      1.30647749
H       0.20908328     -1.86075204     -0.81008056
H      -0.12161517     -1.53529807      0.91460285
H      -0.12161500      1.53529834      0.91460285
H       0.20908349      1.86075228     -0.81008055
