13
b3lypvtz=-177354.2578440722
C      -2.81574447      0.29649052     -0.23392263
N      -1.52417074      0.28486178     -0.14731163
C      -0.77676255     -0.77497643      0.11706060
N       0.60516695     -0.60016740      0.17108139
C       1.32644068      0.48237093     -0.00359329
N       2.69827939      0.49463669      0.08348983
H      -3.43057652     -0.59609659     -0.09263912
H      -3.31874686      1.22897805     -0.45621362
H      -1.11277688     -1.78893143      0.30178436
H       1.10907113     -1.45197223      0.37814958
H       0.80887771      1.39947049     -0.22523569
H       3.23698189     -0.32586927      0.28696092
H       3.19396026      1.35120489     -0.05983324
