18
b3lypvtz=-168843.32937356
C       2.25370271     -0.78002985      0.19710618
C       0.87126615     -0.66886238     -0.44163365
C      -0.02946224      0.37382317      0.22863759
N       0.52875265      1.70022362      0.02666389
N      -1.40260639      0.28206356     -0.29892804
C      -2.17940327     -0.86100721      0.17017728
H       2.18210347     -1.10445033      1.23803028
H       2.87131701     -1.50726193     -0.33216532
H       2.76555075      0.18131624      0.18346394
H       0.95732836     -0.40116057     -1.49905871
H       0.37543391     -1.64067411     -0.41234664
H      -0.01957626      0.19075323      1.31637951
H       0.42592543      1.97165592     -0.94572966
H       0.05369980      2.39359397      0.59187578
H      -1.88698627      1.13450325     -0.04421063
H      -2.15495332     -0.99714859      1.26339146
H      -3.21932569     -0.73662930     -0.13188692
H      -1.82056580     -1.78409270     -0.28543831
