15
b3lypvtz=-157232.74525393
C       2.64417749      0.85000657      0.00059106
C       2.04016474     -0.56283477     -0.00057125
C       0.57985020     -0.56446806     -0.00011052
C      -0.62359371     -0.55072226      0.00022108
C      -2.09054028     -0.49595213      0.00059301
N      -2.68189014      0.84986675     -0.00064325
H       2.32798148      1.40637333      0.88307241
H       3.73377133      0.79792930     -0.00000574
H       2.32711206      1.40821013     -0.88042478
H       2.40034614     -1.11433357      0.87278661
H       2.39976651     -1.11266438     -0.87521951
H      -2.47396619     -1.03223826     -0.87087280
H      -2.47345380     -1.03040772      0.87340722
H      -2.35108678      1.36220580     -0.81080786
H      -2.35059804      1.36390729      0.80824332
