15
b3lypvtz=-180558.45242998
C      -2.28340049     -0.29735464     -0.22154009
C      -1.03199437      0.05716981      0.07240451
O      -0.66269016      1.36773578      0.08916298
C       0.04851503     -0.93293392      0.43415513
C       1.35034967     -0.74615254     -0.35560533
N       1.98004663      0.54344663     -0.00479465
H      -2.57768413     -1.33533774     -0.20980742
H      -3.02792593      0.44841278     -0.46011406
H       0.31671596      1.40629857      0.10568793
H       0.27893890     -0.83907443      1.50277247
H      -0.32699871     -1.94406952      0.27978744
H       2.01259899     -1.60052890     -0.17767991
H       1.12816383     -0.72566316     -1.42374946
H       2.69303429      0.79939878     -0.67633621
H       2.42951849      0.48738750      0.90209467
