12
b3lypvtz=-192231.71554677
C       3.06383006      0.42235556     -0.26633633
C       1.93111037      0.09551828     -0.05149447
C       0.56666049     -0.31913198      0.23987513
O      -0.31565273      0.17574637     -0.76863530
C      -1.65159262     -0.21045135     -0.57360987
O      -2.24526601      0.37315678      0.56115370
H       4.06495563      0.71506814     -0.46233558
H       0.26615640      0.05468099      1.22310962
H       0.51267394     -1.41538831      0.27411694
H      -1.73027819     -1.29105782     -0.41766443
H      -2.16441705      0.07501542     -1.49431482
H      -2.29818027      1.32448793      0.41729874
