10
b3lypvtz=-212389.97848025
N       1.97708954      0.41315521     -0.73086200
N       1.21539905     -0.49884068     -0.31230236
C      -0.03613348     -0.01751920      0.01558682
O      -0.32050712      1.30198144     -0.12957509
C      -0.96452836     -0.87740818      0.47933376
O      -2.20939165     -0.51373254      0.82556355
H       2.87955920     -0.01321292     -0.95301258
H       0.50733065      1.69223300     -0.47518189
H      -0.74304260     -1.92553819      0.59640317
H      -2.30587523      0.43888206      0.68394662
