16
b3lypvtz=-147162.62441536
C      -2.61511345     -0.09362604      0.23638723
C      -1.29193474     -0.61706338     -0.23838478
C      -0.16131798      0.06102247     -0.22155152
C       0.53617078      1.30537102      0.12335414
C       1.27810285      0.09898113     -0.47958963
C       2.25196591     -0.69929126      0.36023457
H      -3.01779155     -0.71296880      1.04305906
H      -3.35612219     -0.10798674     -0.56808469
H      -2.52867156      0.92913335      0.60255982
H      -1.28096172     -1.63351017     -0.62393588
H       0.39605564      2.18178685     -0.49964899
H       0.71577314      1.52961877      1.16975955
H       1.57758403      0.22394808     -1.51674440
H       1.90312769     -0.77468386      1.39145276
H       3.24006928     -0.23359232      0.36817437
H       2.36295287     -1.71466109     -0.02615663
