13
b3lypvtz=-179786.10070477
C       1.19802545      1.28291207     -0.05886982
C       0.88679564     -0.19294316      0.01606904
O       1.75107949     -1.04192619     -0.03104741
C      -0.54662495     -0.61713869      0.14209245
C      -1.63663071     -0.01865784     -0.68690846
N      -1.51254158      0.33700330      0.71988820
H       2.27068717      1.42640418      0.04103142
H       0.87779525      1.68439077     -1.02384940
H       0.65424267      1.83108064      0.70978338
H      -0.64536311     -1.66839445      0.38522451
H      -2.43074822     -0.68509886     -1.00141351
H      -1.40831827      0.77721471     -1.38397349
H      -2.19274084     -0.15907947      1.28507209
