13
b3lypvtz=-179754.23443082
N       1.45759076     -0.37127548     -0.90735161
C       0.22746225     -0.09625935     -0.25231718
C      -0.90321663     -1.11085585     -0.14333607
O      -1.32608895     -0.56059946      1.14016149
C      -0.23444285      0.36246624      1.12610218
C      -0.34346475      1.28150457     -0.05573763
H       1.96158617      0.46528167     -1.16204194
H       2.06614481     -0.97466713     -0.36957514
H      -0.54785422     -2.13622473     -0.01613379
H      -1.69331719     -1.07738517     -0.89737694
H       0.26133957      0.59215172      2.05926302
H      -1.32040524      1.55071168     -0.44312942
H       0.39476627      2.07525131     -0.07852697
