9
b3lypvtz=-199145.93145214
N      -2.31780314     -0.25283434      0.19062852
C      -1.13492591     -0.65863624      0.01808565
C       0.01740559      0.29389509     -0.20381726
O      -0.11026792      1.48611077     -0.29418997
N       1.26853613     -0.35197124     -0.45154295
N       2.09603696     -0.35819389      0.46255331
H      -2.34171181      0.77148184      0.12801358
H      -0.91082803     -1.72312886      0.04704998
H       2.94174212     -0.82855912      0.10329513
