16
b3lypvtz=-168071.91145148
C       3.03060142      0.03767861     -0.18708873
C       1.61386220     -0.52903896     -0.10850894
C       0.57479525      0.52258836      0.31219263
C      -0.80815768     -0.03533414      0.43656596
N      -1.75077036      0.35005238     -0.32268919
N      -2.97689664     -0.27002935     -0.21500582
H       3.74730083     -0.72651079     -0.49187199
H       3.08826393      0.85429894     -0.90995973
H       3.35405041      0.42986134      0.77981363
H       1.59210623     -1.36389985      0.59870169
H       1.32486918     -0.94192845     -1.07830683
H       0.87957973      0.95108613      1.27445521
H       0.55150949      1.33870427     -0.41201098
H      -0.97605373     -0.81112064      1.19588161
H      -3.70445776      0.36381558     -0.50866687
H      -3.17393852     -0.65644843      0.70554536
