15
b3lypvtz=-180531.57521402836
C      -1.84799669     -0.38218300     -0.07510681
C      -0.59074492     -0.32168237      0.79008492
C       0.40610111      0.75622423      0.34803742
N       0.94597870      0.55925009     -1.00860051
C       1.99789591     -0.14942615     -1.43209067
O       2.65765364     -0.78560613     -0.45822978
H      -1.60480770     -0.62187655     -1.11105962
H      -2.53412270     -1.14835689      0.28680776
H      -2.38148229      0.57143297     -0.06401687
H      -0.09594593     -1.29603202      0.78346818
H      -0.86552209     -0.11858932      1.82917620
H      -0.07392609      1.73607701      0.36186824
H       1.23351934      0.82282662      1.05981786
H       0.45623702      1.03131965     -1.74935189
H       2.29716268     -0.65337814      0.43919559
