12
b3lypvtz=-187436.56201754
C      -2.31555039     -0.37453665     -0.13312546
N      -1.02179363      0.11173604     -0.55432055
N       0.02547690     -0.04878675      0.21643058
N       1.11747358      0.30411528     -0.31174666
C       2.19829053      0.13499175      0.57112750
N       3.39740355      0.41470170      0.27692933
H      -2.27006069     -0.56326108      0.93628820
H      -2.58828088     -1.30145187     -0.64481727
H      -3.08286747      0.37490506     -0.32971394
H      -0.85273257      0.43709711     -1.50147440
H       1.95210599     -0.26374873      1.55668840
H       3.44053508      0.77423813     -0.67949986
