14
b3lypvtz=-167306.65963201
N       2.32209268     -0.05409628     -0.54962726
C       1.55014223     -0.50292698      0.35283422
C       0.15710362     -0.10971744      0.67643239
C      -0.42945858      1.20925383      0.22365481
C      -0.89241974     -0.04653873     -0.42912263
N      -2.21229474     -0.51605767     -0.11076389
H       1.88343380      0.70462951     -1.07729053
H       1.94827827     -1.30883423      0.97383167
H      -0.22152237     -0.48995385      1.61519822
H       0.20936507      1.87860002     -0.33755821
H      -1.11242903      1.69065821      0.90886932
H      -0.49221763     -0.23874918     -1.42331237
H      -2.31120333     -1.50278031     -0.31708629
H      -2.91329125     -0.01916589     -0.64791145
