13
b3lypvtz=-179796.49826065
C      -1.68892874     -0.57544522      0.02904023
C      -0.47642741      0.14399614      0.56165717
C       0.37160448      0.98862091     -0.41021044
C       1.45785552     -0.01489162     -0.10460367
N       2.64873202     -0.16224632     -0.45611427
O       0.67297670     -0.76692859      0.74851786
H      -2.50023442      0.13523015     -0.14229457
H      -2.03737853     -1.32298737      0.74250807
H      -1.46192023     -1.07632199     -0.91303829
H      -0.68703559      0.63789632      1.51063996
H       0.59312517      2.00742803     -0.10042703
H       0.03549998      0.98633036     -1.44569114
H       3.07213106     -0.98068081     -0.01998387
