14
b3lypvtz=-169683.10332709
C      -0.79119299      0.99564866      0.62542006
C      -0.22674402     -0.43034479      0.87715145
C      -0.85529260     -0.83611485     -0.48997711
C      -0.19066015      0.54997923     -0.73437974
C       1.02312625      0.03124126      0.09777904
O       1.83922262     -1.00037758     -0.41120082
H      -0.29984483      1.82218053      1.14125039
H      -1.87514152      1.08956831      0.65925162
H      -0.24161876     -0.99270424      1.80884130
H      -1.94439400     -0.85734932     -0.52762217
H      -0.41240359     -1.68846107     -0.99651115
H      -0.16469364      1.12088426     -1.66178897
H       1.62460303      0.80557807      0.58449662
H       2.51503418     -0.60972846     -0.97271050
