15
b3lypvtz=-157220.08144759
C       1.95745681      0.08806161      0.14964469
C       0.54518445      0.19240771     -0.38057489
C      -0.30825933     -1.10243756     -0.31425422
C      -1.25370663     -0.33020958      0.59203010
N      -0.36227259      0.90229299      0.60470445
C      -1.69154849      0.93109727     -0.02628263
H       1.96541780     -0.37414938      1.13824280
H       2.57664247     -0.51489970     -0.51846081
H       2.40752751      1.07806900      0.23816087
H       0.54257114      0.69193022     -1.35324975
H       0.21610725     -1.90644590      0.20045745
H      -0.72909620     -1.49399794     -1.24181389
H      -1.70301535     -0.70989457      1.50095149
H      -2.40479617      1.53675168      0.51766308
H      -1.75821266      1.01142414     -1.10721875
