12
b3lypvtz=-168926.58488954883
C      -0.29069706      1.35661111     -0.33172399
C      -0.00846705     -0.09298367      0.00929011
C       1.41138069     -0.64468348      0.04194717
C       0.87140317     -0.47918731      1.19172966
C      -1.08158807     -1.05774772     -0.35573893
O      -2.12351218     -0.76114905     -0.88804861
H       0.54166299      1.99192407     -0.03094871
H      -0.45476666      1.47910578     -1.40362627
H      -1.19555751      1.70451676      0.16935552
H       2.25605495     -0.89582233     -0.57324268
H       0.92307398     -0.48718664      2.26515761
H      -0.84898726     -2.11339751     -0.09415092
