10
b3lypvtz=-217432.56164313
C      -1.65756248      0.93916887     -0.00003505
C      -0.73678625     -0.00644602      0.00000021
F      -1.08526611     -1.32135500     -0.00002975
C       0.74279119      0.24074449      0.00004415
N       1.50241693     -0.88346843     -0.00007027
O       1.19525578      1.36991848     -0.00000279
H      -2.70979374      0.69815405     -0.00008727
H      -1.33555299      1.96844730     -0.00000281
H       1.09069669     -1.79877532     -0.00010479
H       2.50225699     -0.78228241     -0.00017964
