12
b3lypvtz=-166501.86660198602
C      -1.49457306      0.07985065     -0.33472406
C      -0.45572364     -0.80445596      0.23427237
N      -0.23514227     -0.06183058     -1.08629168
C       0.75340779      0.77401067     -0.36132386
C       0.62917209     -0.00622472      0.90960270
N       1.86504299     -0.00043609      0.11396352
H      -1.70956203      1.02762791      0.14630727
H      -2.34068360     -0.38552773     -0.82493357
H      -0.56275137     -1.88191269      0.25544136
H       0.86502087      1.82776287     -0.57470876
H       0.68782607      0.28167610      1.94956385
H       1.99796619     -0.85054045     -0.42716916
