13
b3lypvtz=-203115.9673964
C      -2.60860824     -0.07194187     -0.00038739
N      -1.24155221      0.32174786     -0.30923398
C      -0.25259630     -0.59224077      0.23126034
C       1.17285069     -0.13669023      0.01541725
O       2.11129164     -0.86734797     -0.16101731
O       1.29964374      1.20996036      0.09778648
H      -2.83573237     -1.02320510     -0.48627311
H      -3.29842244      0.67309743     -0.39599690
H      -2.80824630     -0.19240893      1.07624784
H      -1.05755264      1.25992666      0.02062888
H      -0.34757058     -1.56785593     -0.24563845
H      -0.35619388     -0.76476338      1.31941482
H       2.23855589      1.41152987     -0.02988347
