12
b3lypvtz=-218146.93724094
O       2.87545611      0.18986096      0.21164377
N       1.72560199     -0.05506227     -0.55368705
C       0.69365268      0.45653448     -0.02256183
C      -0.64033670      0.30360310     -0.68114993
C      -1.59020055     -0.54019517      0.15886369
F      -2.85047291     -0.55178365     -0.43514701
H       3.56836248     -0.23598383     -0.30328749
H       0.77200626      1.00223735      0.91842078
H      -0.51166243     -0.15175965     -1.66248675
H      -1.09476164      1.28895919     -0.82023134
H      -1.70405961     -0.13365674      1.16669837
H      -1.24358569     -1.57275377      0.22872480
