14
b3lypvtz=-146399.41601774
C       2.40231200      0.28143981      0.00002362
C       1.22759513     -0.64714880     -0.00000486
C      -0.04759629     -0.27112974     -0.00004750
C      -1.35287198     -0.94162958     -0.00006248
C      -2.03851392      0.21541402      0.00008972
C      -0.78562586      1.08454666     -0.00005438
H       3.03621412      0.11871279      0.87671425
H       3.03625982      0.11876269     -0.87664348
H       2.09017132      1.32593582      0.00004706
H       1.44550965     -1.71166948      0.00000265
H      -1.64465535     -1.98326451     -0.00006519
H      -3.09089639      0.45999806      0.00017324
H      -0.63327960      1.70002284     -0.88957959
H      -0.63312965      1.70012343      0.88937296
