17
b3lypvtz=-158018.51971427
C      -1.59563254      1.25081028      0.05368399
C      -1.00136932      0.05524566      0.13899375
N      -1.40130858     -1.05332537     -0.61382105
C       0.21257088     -0.19243854      0.99932522
C       1.49022092     -0.55311235      0.21816867
C       2.00014200      0.57296361     -0.67885260
H      -1.20148165      2.10197293      0.58716903
H      -2.47132682      1.41098334     -0.56294740
H      -1.29196026     -1.94369985     -0.15159753
H      -2.30912663     -0.96866102     -1.04520735
H       0.39381904      0.69363423      1.60911168
H      -0.01360691     -1.00902614      1.69587207
H       2.26433970     -0.82429938      0.94107693
H       1.30542397     -1.44396667     -0.38636862
H       2.91443147      0.27671932     -1.19585639
H       1.26051033      0.84466876     -1.43260352
H       2.22270640      1.47028516     -0.09641089
