14
b3lypvtz=-167315.76729824
C       2.14411575     -0.71646025      0.21591695
N       1.46161188      0.21689006     -0.30583234
C       0.07864014      0.31493623     -0.08194859
C      -0.42591265      1.71874123      0.09472802
C      -0.71578283     -0.77265124     -0.12631657
N      -2.08471922     -0.81639743      0.11459876
H       3.19717474     -0.80672401     -0.03747274
H       1.72785608     -1.44326950      0.92156264
H      -1.46450117      1.83123187     -0.22520690
H       0.18732288      2.39674622     -0.49921903
H      -0.36230289      2.05007539      1.13572900
H      -0.27841833     -1.73503697     -0.36275214
H      -2.54153483      0.07513952      0.22657934
H      -2.60839458     -1.43445813     -0.48678239
