16
b3lypvtz=-168088.73774779
C       2.65677906     -0.26242567     -0.34819101
C       1.45127789      0.40231689      0.32809376
C       0.22927996     -0.47011461      0.33046013
C      -1.01654444     -0.05983471      0.04209990
N      -2.09918706     -0.93599061     -0.17299736
N      -1.35900274      1.27754770     -0.18650046
H       2.91447957     -1.20148634      0.14691798
H       3.53723622      0.38252992     -0.31412370
H       2.44069835     -0.48848401     -1.39370111
H       1.22606753      1.34116823     -0.18530052
H       1.74003247      0.67791390      1.35121073
H       0.36789202     -1.51905085      0.56782416
H      -2.88833610     -0.75308972      0.43547183
H      -1.82826080     -1.90634615     -0.10938299
H      -2.31978138      1.43202317     -0.44261430
H      -1.00486155      1.94790388      0.47411396
