14
b3lypvtz=-190633.24747996
C       2.11395955     -0.79754976     -0.02522449
N       0.66544246     -0.76959847      0.05485035
C       0.05301901      0.33122219      0.02367340
O       0.67226160      1.55905058      0.03323012
N      -1.33021801      0.42740368     -0.05155197
C      -2.10881686     -0.80465265     -0.02562927
H       2.41871081     -1.65022881     -0.63413854
H       2.55317624      0.11186616     -0.44401040
H       2.54093873     -0.94844129      0.97048980
H       0.09261799      2.20076378     -0.39380080
H      -1.70426857      1.15663586      0.53882688
H      -1.81181444     -1.43384834     -0.86134808
H      -3.16246700     -0.54947887     -0.13135971
H      -1.96074352     -1.38019606      0.89207570
