10
b3lypvtz=-165801.90300171
N       3.07383464     -0.37105919      0.00001888
C       1.99333970      0.03280717     -0.00000535
C       0.67196825      0.55439119     -0.00000604
C      -0.42451989     -0.21647581     -0.00000223
C      -1.77351777      0.34477388      0.00000065
N      -2.86483833     -0.30710235      0.00000545
H       0.58573841      1.63522638     -0.00001003
H      -0.33120566     -1.29722272     -0.00000088
H      -1.83694060      1.43479492     -0.00000169
H      -2.69375074     -1.31557746      0.00000725
