9
b3lypvtz=-199160.52508229634
C       0.69715917     -0.25927532      0.56266259
N       1.60318712      0.57604302      0.15468301
N       2.38715605      1.30919184     -0.20856863
C      -0.64460316     -0.28961039     -0.00662705
N      -1.48361489     -1.12980897      0.43156540
O      -0.94985265      0.59914755     -1.00218079
H       0.97378617     -0.94127656      1.34874533
H      -2.37354107     -1.03816481     -0.05374056
H      -0.20967675      1.17375362     -1.22653932
