12
b3lypvtz=-168977.54198463
C       2.11875604     -0.01190947      0.00000110
C       0.63941090      0.10557403      0.00000240
C      -0.21857782      1.15846774      0.00000949
C      -1.54347649      0.61278610     -0.00001318
C      -1.39551012     -0.73213874      0.00002354
O      -0.07153974     -1.06245343      0.00000975
H       2.47547917     -0.55060440     -0.88098067
H       2.56887486      0.97935645      0.00000909
H       2.47547857     -0.55061743      0.88097491
H       0.05703922      2.19935448      0.00001206
H      -2.47423514      1.15373608     -0.00002635
H      -2.08673145     -1.55543040      0.00002187
