12
b3lypvtz=-189878.66246186
C       2.31669900      0.43649595     -0.50125995
C       1.14209760     -0.02002887     -0.06419673
N      -0.02299662      0.73589171     -0.07824366
C      -1.16563033      0.17484831      0.02065002
N      -1.47443544     -1.15680989      0.07354408
O      -2.27825148      0.93823435      0.11633228
H       2.40775271      1.43077210     -0.91697189
H       3.20299806     -0.17816962     -0.44400717
H       1.09918485     -1.02124804      0.36933492
H      -0.81826380     -1.79704056     -0.33715877
H      -2.44517158     -1.39550909     -0.03724116
H      -1.96398299      1.85256362      0.13630072
