14
b3lypvtz=-193022.81872971
C       2.62427734     -0.44468571      0.11971506
O       1.32248511     -0.24773668     -0.39382845
C       0.57769836      0.71227929      0.33066706
C      -0.81444332      0.81010910     -0.28228794
C      -1.63876004     -0.44013544     -0.08945479
O      -2.79907106     -0.43944735      0.23592333
H       3.11053759     -1.18951570     -0.50703963
H       3.21016649      0.48229037      0.09249427
H       2.59800499     -0.80965014      1.15366992
H       0.51624777      0.42521679      1.39026771
H       1.07198175      1.69179982      0.28786090
H      -0.69835929      0.96976066     -1.35985766
H      -1.36437981      1.65729351      0.12819785
H      -1.10167489     -1.39084650     -0.27440065
