15
b3lypvtz=-180503.6279563667
C      -1.85950642      0.31248310      0.08517270
C      -0.46944400     -0.02339121     -0.42558632
C       0.40625724     -1.07348453      0.44715583
N       1.57915671     -0.26646142     -0.07740634
C       0.73119802      0.99058370     -0.02421118
O      -0.34124922     -0.33359068     -1.69568633
H      -1.87588271      0.55694122      1.15146718
H      -2.52045345     -0.53669858     -0.09496471
H      -2.25170075      1.15966798     -0.47954167
H       0.40877127     -2.10297973      0.10068927
H       0.37912965     -0.98499561      1.53305230
H       1.55245870     -0.49384964     -1.09157530
H       2.49794226     -0.31276538      0.35282291
H       1.01133309      1.72530054     -0.77360414
H       0.75198960      1.38324023      0.99221580
