17
b3lypvtz=-157997.23741671
C      -2.39586724     -0.32459128     -0.14221786
C      -1.24445433      0.58935082      0.25877999
N       0.00903385      0.17902335     -0.34014987
C       0.67696661     -1.04382580      0.15520213
C       2.03658919     -0.33566374     -0.02993217
C       1.21896190      0.97398492     -0.05253530
H      -3.33243435      0.01707584      0.30126642
H      -2.50988529     -0.34303884     -1.22662281
H      -2.22407262     -1.34822502      0.19629873
H      -1.16649817      0.62538679      1.36177178
H      -1.45140112      1.61025182     -0.07403951
H       0.48304376     -1.94858951     -0.42258777
H       0.46139565     -1.24581510      1.21545401
H       2.49632257     -0.55845654     -0.99046292
H       2.77128792     -0.45181985      0.76277654
H       1.46473851      1.72802910     -0.80256978
H       1.18963916      1.45360002      0.93721138
