14
b3lypvtz=-193030.00974983
C      -2.15944435      0.09754737     -0.11136474
C      -1.00108896      0.56541797      0.33010962
C       0.35843015     -0.01807738      0.02828435
C       1.27072158      0.98907668     -0.66517861
O       0.17294219     -1.17543616     -0.76409332
O       1.01704185     -0.35624272      1.24668544
H      -3.09325207      0.56690473      0.16926537
H      -2.20611352     -0.76283604     -0.76409222
H      -0.96634232      1.43068034      0.98287336
H       2.26277208      0.55204287     -0.79446565
H       0.86161666      1.25041258     -1.63924493
H       1.37552367      1.89226641     -0.06525763
H       1.04490698     -1.54600588     -0.93823049
H       0.43029207     -0.94678378      1.73402144
