14
b3lypvtz=-167318.61155395
C      -1.42062571     -0.65614933      0.00143562
C      -0.07105190     -0.19092761     -0.54530896
C       0.08592583      1.31528508     -0.55586723
N      -0.76418621      2.09094542     -0.03023223
C       1.07867584     -0.78016843      0.24127065
N       2.06429010     -1.33346467     -0.32765795
H      -1.49860586     -1.74239850     -0.05441767
H      -2.23624083     -0.21624736     -0.57041759
H      -1.55243672     -0.34794466      1.03847402
H       0.06607286     -0.53118044     -1.57617776
H       1.00010344      1.66699075     -1.04773084
H      -0.48693951      3.06632224     -0.13664857
H       0.98978372     -0.67657291      1.33017753
H       2.74523496     -1.66448955      0.35604819
