13
b3lypvtz=-156452.63830856
C       2.76342220     -0.09346746     -0.16783754
C       1.33405628     -0.17684737      0.09512804
C       0.15246790     -0.25263520      0.30892762
C      -1.25399435     -0.33095936      0.59560639
C      -2.25534800     -0.06408897     -0.47588057
N      -2.08088644      0.89990103      0.61329110
H       3.33747219     -0.12592967      0.76027780
H       3.01330626      0.83744454     -0.68067761
H       3.09806720     -0.92025436     -0.79775163
H      -1.52586885     -1.03242296      1.37568384
H      -1.87400064      0.18120512     -1.45880882
H      -3.19513659     -0.60190746     -0.46495120
H      -1.51355716      1.67996211      0.29699257
