12
b3lypvtz=-194867.04773815
C      -1.76569404      0.84689234      0.00000614
C      -0.77390109     -0.03018118     -0.00000271
F      -1.05853436     -1.35818643     -0.00001256
C       0.68378005      0.27251729      0.00000051
C       1.65826672     -0.88752955     -0.00000075
N       1.02430114      1.49860367     -0.00000108
H      -2.79435624      0.51957080     -0.00000006
H      -1.53152298      1.89910906      0.00001005
H       1.16648755     -1.85537056      0.00005131
H       2.29899433     -0.82563152     -0.88103049
H       2.29906904     -0.82556788      0.88096962
H       2.03932387      1.59602198      0.00000201
