10
b3lypvtz=-212384.79123594
N       2.06494172     -0.66267959     -0.00564460
C       0.88608483     -0.02710588     -0.00072661
O       0.97978804      1.29716563      0.00012909
C      -0.35652867     -0.64430865     -0.00050924
N      -1.38950765      0.23371390      0.00026792
O      -2.54350362     -0.20125854      0.00088758
H       2.91644258     -0.13039609      0.01866329
H       2.10719557     -1.66446080      0.01674378
H       0.04203515      1.60365237      0.00012644
H      -0.50021695     -1.71789434     -0.00115967
