15
b3lypvtz=-157243.92090901
C      -1.84639539     -0.39056260      0.00214676
N      -0.45136751     -0.32622054      0.36980883
C       0.06327746      1.00888424      0.68691428
C       1.52276577      0.89842025      0.34737760
C       1.75612030     -0.20886385     -0.34481776
C       0.48180051     -0.97691167     -0.55413582
H      -2.46211847      0.03939317      0.79405073
H      -2.07607619      0.14682275     -0.93567248
H      -2.15230917     -1.43059157     -0.12408663
H      -0.12024619      1.26240474      1.73671258
H      -0.41238775      1.80399984      0.08198048
H       2.25182265      1.64810382      0.61961072
H       2.71018408     -0.52690604     -0.74012763
H       0.15785394     -0.90297720     -1.60962534
H       0.57707593     -2.04499534     -0.33013632
