12
b3lypvtz=-194836.21108173867
C      -2.43524606      0.09425336      0.20629913
N      -1.16408582     -0.29953867      0.17064260
C      -0.04859762      0.29209472     -0.27890627
C       1.20994587     -0.36117462     -0.19761755
C       2.39005970      0.12022118     -0.60830813
F       2.48534761      1.35186230     -1.17251683
H      -2.69903857      1.06232347     -0.18250301
H      -3.16280707     -0.57452225      0.62643600
H      -1.00697519     -1.22386323      0.55702396
H      -0.15363953      1.27875212     -0.70108309
H       1.24510286     -1.35503503      0.23886810
H       3.33993383     -0.38537333     -0.54122664
