11
b3lypvtz=-176625.48708480448
C       0.19429597     -0.78146408      0.72642115
N      -0.94046927     -0.03418172      0.99026608
C      -1.12540382      0.90208544      0.07160632
N      -0.11351378      0.78333729     -0.81018012
C       0.78240229     -0.27440086     -0.46620832
N       1.80622480     -0.51240731     -1.21924275
H       0.50089579     -1.58539826      1.36574164
H      -1.55300005     -0.17431684      1.77448375
H      -1.92828284      1.61281102      0.04322260
H       0.03092020      1.35143885     -1.62691147
H       2.34593071     -1.28750351     -0.84919889
