9
b3lypvtz=-227494.10004091
C      -1.52224518     -0.35590485     -0.14373582
N      -0.69883815      0.48195444      0.28697160
C       0.67463066      0.25313296      0.11577961
N       1.58306309      1.03442070      0.51361025
O       0.98967343     -0.90085354     -0.52706452
F      -2.82309674     -0.13554701      0.02041341
H      -1.33249354     -1.29103498     -0.66160052
H       1.17447658      1.84370192      0.97076320
H       1.95482984     -0.92986964     -0.57513722
