11
b3lypvtz=-204949.25708866
C      -2.31485459      0.49548217     -0.07862745
C      -1.17083104     -0.15425920      0.11647790
N       0.08025480      0.39036997      0.06184448
C       1.11524604     -0.33717512      0.26474392
N       2.36609665      0.17296837      0.18300139
F      -1.23166417     -1.49544231      0.40397549
H      -3.25879889     -0.02059534     -0.01183620
H      -2.29022848      1.54857314     -0.30444586
H       1.07185223     -1.40077810      0.49414581
H       3.15531998     -0.36484298      0.48741962
H       2.47760749      1.16569942      0.06327289
