11
b3lypvtz=-179024.3357421
C      -1.61108803     -0.95857111      0.21241589
N      -0.48906738     -1.10942831     -0.35563936
C       0.58230405     -0.25992929     -0.06190305
C       1.82565026     -0.72522137      0.11769960
C       0.38443489      1.21703013     -0.01875578
O      -0.67831781      1.78190259     -0.09836116
H      -2.42786494     -1.61324547     -0.08233932
H      -1.81561221     -0.22256628      0.98962056
H       2.04277047     -1.78300225      0.07989662
H       2.63921923     -0.04375100      0.32429086
H       1.33086347      1.78369635      0.08448813
