13
b3lypvtz=-179792.36341248
C       2.55235789      0.39465387      0.09157434
C       1.68158298     -0.61880702      0.00712210
N       0.32062656     -0.53234403     -0.16067103
C      -0.38364079      0.70569105     -0.07021187
C      -1.87019862      0.49220469      0.02135911
O      -2.39271891     -0.59146597      0.07889030
H       3.60540668      0.18653006      0.19664292
H       2.25446919      1.43247325      0.04500483
H       2.03925788     -1.64094925      0.04901608
H      -0.24236326     -1.35077591      0.00176636
H      -0.08823613      1.30093337      0.81157779
H      -0.19272750      1.36102317     -0.93348077
H      -2.47152198      1.42141172      0.04076483
