14
b3lypvtz=-146426.89003285
C       2.18157716      0.00593975      0.00000178
C       0.69015488      0.06354086      0.00000071
C      -0.10383157      1.15088468     -0.00000527
C      -1.51033966      0.74168108     -0.00000140
C      -1.58463203     -0.59887670      0.00000033
C      -0.19107323     -1.16158853      0.00000574
H       2.56369160     -0.52520058     -0.87706243
H       2.61568887      1.00592081     -0.00002205
H       2.56369067     -0.52515788      0.87709242
H       0.23557144      2.17768179      0.00000139
H      -2.34657541      1.42631373     -0.00001961
H      -2.48102156     -1.19993563      0.00002036
H      -0.00322559     -1.79523651     -0.87494674
H      -0.00323857     -1.79520986      0.87498078
