10
b3lypvtz=-186701.59135799
C      -0.47406048     -0.68061814     -0.45335053
C       0.45503754      0.20734464      0.04222108
N      -0.20710348      1.22104098      0.66296378
N      -1.49308202      1.01528907      0.57803982
N      -1.66148492     -0.12669753     -0.08514358
N       1.84063280      0.21861414     -0.07055694
H      -0.39772746     -1.59504640     -1.01129150
H      -2.59261341     -0.46879801     -0.25232733
H       2.27565748     -0.68518026      0.03365661
H       2.25474393      0.89405153      0.55578860
