14
b3lypvtz=-193008.67791039
C       1.74073692     -0.84805318     -0.16785135
C       0.78419516      0.15091546      0.47571350
O       0.75815785      1.38747617     -0.23185646
C      -0.62172750     -0.40805746      0.53718970
C      -1.80526684      0.34933544      0.13159227
O      -1.27367031     -0.69101739     -0.70148969
H       1.42549606     -1.05648936     -1.19010389
H       2.75990606     -0.45437183     -0.18238008
H       1.75831536     -1.78658058      0.38894032
H       1.09533947      0.33120023      1.51485185
H       1.64523272      1.57977827     -0.54731287
H      -0.74308475     -1.18797291      1.28630686
H      -1.67513798      1.35153647     -0.25568117
H      -2.76442623      0.12701069      0.58853000
