14
b3lypvtz=-167303.9217768
C      -2.32864959     -0.36315984     -0.25260367
C      -0.89337430      0.05671893     -0.41503168
N      -0.38670197      1.07976541      0.49929439
C       0.15736940     -0.27809688      0.59947506
C       1.53479628     -0.61777638      0.15102549
N       2.37567847      0.10348997     -0.46470920
H      -2.60785213     -0.37180456      0.80078152
H      -2.99202345      0.33246371     -0.77086206
H      -2.49332292     -1.35942741     -0.66753950
H      -0.53149699      0.09758579     -1.43827575
H       0.27176974      1.69863357      0.03411360
H      -0.16418138     -0.81502633      1.48563767
H       1.84271954     -1.63806441      0.39074009
H       2.01809828      1.04784443     -0.63476295
