12
b3lypvtz=-189883.95316366
N      -0.43793620      1.30458310     -0.00403508
C      -0.82401132      0.06643522     -0.00356423
N      -2.14135591     -0.33605617     -0.04549832
C       0.17695356     -0.98677865     -0.00631796
C       1.49816681     -0.69254883      0.00152528
O       2.00398839      0.52798302      0.00958701
H      -1.19745820      1.97712289     -0.00266274
H      -2.35391427     -1.27739973      0.23747053
H      -2.84481962      0.34491563      0.18638370
H      -0.13092045     -2.02137781     -0.02439968
H       2.24781021     -1.47679699      0.00204529
H       1.20201499      1.15082132      0.00318619
