12
b3lypvtz=-166576.99436426
C       1.47479990      1.39216147     -0.00251983
C       0.34120285      0.39789851      0.00590574
C       0.65097641     -0.98786397     -0.00185988
N       0.86777917     -2.12416193     -0.00215231
C      -0.96197216      0.76276202      0.01381006
N      -2.04052417     -0.06954507     -0.04988236
H       1.08567162      2.40989227      0.02855264
H       2.13361948      1.25594916      0.85755381
H       2.08917984      1.29455798     -0.90024608
H      -1.20752078      1.81769160      0.03232232
H      -2.93383159      0.27981411      0.24563416
H      -1.89393756     -1.05897513      0.07527574
