12
b3lypvtz=-187448.95844209
C       2.17561561     -0.44615681     -0.52357578
N       1.18504047     -1.03055823      0.00728921
C      -0.02648987     -0.32455172      0.13132062
N      -0.75231225     -0.64958081      1.25897011
N      -0.39263843      0.52339521     -0.75880330
N      -1.67286385      1.07627040     -0.50850335
H       3.09283962     -1.00945887     -0.67332942
H       2.14522098      0.59531708     -0.84755198
H      -0.47557095     -1.52402107      1.67693267
H      -1.75128621     -0.54320632      1.13517941
H      -1.66818595      1.60683662      0.36207675
H      -1.85956917      1.72581452     -1.26000494
