13
b3lypvtz=-156505.07738649
C      -0.71220710      1.46735965      0.00000250
C      -0.76935158     -0.02953508      0.00000042
C      -2.13796458     -0.64163821      0.00000168
C       0.32547439     -0.80613995     -0.00000203
C       1.65697505     -0.30584730     -0.00000260
N       2.74608840      0.07655274     -0.00000459
H      -1.23179975      1.86488729     -0.87612887
H       0.30742463      1.84578470     -0.00000209
H      -1.23179057      1.86488435      0.87614071
H      -2.10242192     -1.72973878     -0.00000363
H      -2.70388851     -0.31292449     -0.87597721
H      -2.70388292     -0.31293294      0.87598742
H       0.23216246     -1.88508199     -0.00000270
