12
b3lypvtz=-215603.36947478
C       2.55237310     -0.30849098      0.00003059
C       1.26395125      0.48141353     -0.00002151
O       0.17165808     -0.47055406     -0.00003760
C      -1.04988888      0.05691389     -0.00004421
O      -1.32919921      1.22884899      0.00003176
O      -1.94668226     -0.94762219      0.00001893
H       3.40097953      0.37693907      0.00004879
H       2.62238851     -0.94175395     -0.88431608
H       2.62233064     -0.94172835      0.88440023
H       1.17141296      1.11578210      0.88154356
H       1.17146988      1.11575503     -0.88161218
H      -2.81749760     -0.52995407      0.00007171
