15
b3lypvtz=-180548.29454508
C      -0.77442143     -1.14742481      0.47211660
N      -0.28338488      0.21748048      0.33985306
C      -1.34150401      1.13439785     -0.05497903
C       0.87728901      0.29357379     -0.52725033
C       2.11251164     -0.29199654      0.12849586
O       3.02213164     -0.80200496     -0.47073285
H      -1.15588450     -1.55717795     -0.47835280
H      -1.58059504     -1.17866487      1.20522660
H       0.02265636     -1.80410206      0.82334639
H      -0.95913814      2.15522997     -0.07810914
H      -2.15102414      1.09347692      0.67474625
H      -1.76704056      0.90370547     -1.04609402
H       1.10977109      1.34921423     -0.70850349
H       0.74061371     -0.17934489     -1.51313575
H       2.12791925     -0.18646263      1.23337266
