14
b3lypvtz=-146396.02166212
C      -3.02842777      0.30798217      0.10173181
C      -1.81206806     -0.04869801     -0.19441180
C      -0.59471741     -0.41015195     -0.48208434
C       0.55200417     -0.45860546      0.50786755
C       1.66239837      0.48634998      0.13639127
C       2.90381977      0.12310459     -0.15896561
H      -3.34767246      1.34173372      0.03388288
H      -3.76777881     -0.41686110      0.42306422
H      -0.36025831     -0.68682382     -1.50652195
H       0.16979348     -0.21052927      1.50074292
H       0.94613022     -1.47772994      0.55580591
H       1.39201211      1.53781308      0.10482678
H       3.21008640     -0.91673813     -0.14354877
H       3.66065030      0.85051211     -0.42173187
