9
b3lypvtz=-201527.24159615
C       1.34624068     -0.34942079     -0.12160927
C       0.01739518     -0.21283004     -0.10280254
C      -0.66776867      0.99148037      0.45849590
O      -0.05852357      1.91988648      0.93347837
N      -0.72012335     -1.31805409     -0.66707993
O      -1.92430160     -1.19274596     -0.64998918
H       1.78823802     -1.24350753     -0.54038308
H       1.98460195      0.42623768      0.27830220
H      -1.76585864      0.97895388      0.41158753
