14
b3lypvtz=-190602.16259962
C       2.59527731      0.57275046      0.16250835
N       1.62972240     -0.42647395     -0.27171913
N       0.32111426      0.03083964     -0.13933598
C      -0.59371895     -0.82172031      0.04799151
O      -1.90277184     -0.50662779      0.11594015
C      -2.22850703      0.87697782     -0.03582960
H       2.48294613      1.46336958     -0.45410015
H       3.59732981      0.17122516      0.01010550
H       2.48529779      0.86675992      1.21438976
H       1.77602923     -1.30938861      0.21220253
H      -0.44308785     -1.89569989      0.16164951
H      -1.88723767      1.25007863     -1.00207286
H      -3.31124180      0.93415401      0.03504986
H      -1.76245678      1.47207033      0.75078454
