13
b3lypvtz=-177385.66720955
C       1.17616272     -0.23864577      0.51260486
N       2.10109030     -0.07774721     -0.33343470
C      -0.19851430      0.35292937      0.29173769
C      -1.24924602     -0.74864496      0.50106271
N      -2.11258163     -1.10552015     -0.34261255
N      -0.33088125      0.98411115     -1.00513872
H       1.29157326     -0.81596174      1.43562562
H       2.96049016     -0.54600284     -0.05334250
H      -0.35305260      1.06537985      1.11675885
H      -1.22732847     -1.23873048      1.47813760
H      -1.97982284     -0.54198768     -1.19132543
H      -0.64413530      1.94060744     -0.93138346
H       0.56624596      0.97021301     -1.47868998
