11
b3lypvtz=-176641.7094409
N       2.78467242     -0.80578027      0.08732739
C       1.89556536     -0.07857936      0.03005750
C       0.76412305      0.85785657     -0.02810816
N      -0.43989302      0.21324226     -0.51065741
C      -1.41369377      0.12786714      0.30121588
N      -2.57679265     -0.50552663     -0.00914473
H       0.65375707      1.30561629      0.97085664
H       1.04491220      1.66438682     -0.71143223
H      -1.38778215      0.52862781      1.32154702
H      -2.71454314     -0.78865983     -0.96543375
H      -3.39510737     -0.33307279      0.54529386
