15
b3lypvtz=-180538.17160617
C      -2.71169088      0.46985958      0.28334206
N      -1.70871447     -0.32928785     -0.41135591
C      -0.36817306      0.05030897     -0.21854404
C       0.61614510     -0.79470708      0.10463555
O       1.95547927     -0.53378400      0.17782021
C       2.36094080      0.80299760     -0.04085664
H      -2.62285918      1.51144494     -0.03086783
H      -3.70687057      0.12423341      0.00344652
H      -2.62365537      0.44138669      1.37835190
H      -1.84731599     -1.31895854     -0.25852075
H      -0.17645410      1.09801203     -0.41103279
H       0.42411055     -1.84056329      0.31079187
H       2.08644570      1.14300952     -1.04528679
H       1.91470411      1.47952518      0.69590233
H       3.44313308      0.81943883      0.06348532
