11
b3lypvtz=-179044.45815742
N       1.00114063      0.12842534      0.18057228
C       0.36880629     -0.77565877      1.01831460
C       0.50040357     -2.11422187      1.23221770
C      -0.38775530     -2.42237571      2.31744735
C      -0.98831584     -1.26783534      2.67558088
O      -0.52755297     -0.23776741      1.88001552
H       0.41565333      0.91085148     -0.07501648
H       1.41145805     -0.30268354     -0.63313250
H       1.14152664     -2.79177707      0.69606179
H      -0.55225694     -3.38876499      2.76302542
H      -1.71910746     -0.99539211      3.41341344
