12
b3lypvtz=-166517.67448807
C      -2.88769582      0.73419404     -0.33103321
C      -1.94836413     -0.01167162     -0.32947645
C      -0.79082876     -0.90365015     -0.34287585
C       0.49873323     -0.17959558     -0.63194115
N       1.48744100     -0.29762112      0.15355521
N       2.67445959      0.30280328     -0.18596559
H      -3.72280688      1.38889660     -0.32468309
H      -0.95499315     -1.68004582     -1.09940953
H      -0.68973962     -1.41169371      0.61772048
H       0.54089266      0.43307797     -1.53832427
H       3.20901545      0.50248384      0.64534225
H       2.58388642      1.12282226     -0.78080026
