11
b3lypvtz=-202306.70106469
C      -2.75450126      0.26650048     -0.00002318
O      -1.56139504     -0.52479848     -0.00002314
N      -0.45835065      0.28196153      0.00002660
C       0.63577567     -0.37814830      0.00002120
C       1.88355865      0.40079969      0.00003727
O       2.97969974     -0.10863123     -0.00006810
H      -2.79975819      0.89042434      0.89267457
H      -3.57365504     -0.44815688     -0.00006303
H      -2.79972109      0.89048097     -0.89268321
H       0.67561894     -1.46462382     -0.00000453
H       1.73986029      1.49671570     -0.00000745
