10
b3lypvtz=-165794.69683352
C      -1.65624326     -0.99833790      0.00007790
N      -1.31061042      0.22289327      0.00005385
C       0.05195987      0.57957813      0.00002964
C       0.39989726      1.87032278      0.00001718
C       1.05919132     -0.45236462      0.00005168
N       1.81198325     -1.32520198      0.00006570
H      -2.71682418     -1.23003364      0.00002753
H      -0.95380868     -1.83570353      0.00003855
H      -0.37339069      2.62466310      0.00001270
H       1.43535154      2.17529440      0.00001926
