16
b3lypvtz=-191382.92257528
C      -0.90533290      1.29353133      0.57673107
N      -0.64984883      0.22552861     -0.38147282
C      -1.72364152     -0.76025280     -0.39552908
C       0.66212873     -0.37500889     -0.30927414
N       1.77812734      0.50328963     -0.58968435
O       0.86481024     -0.94155752      0.98549294
H      -1.85342389      1.77095568      0.32602874
H      -0.13104478      2.05781256      0.51031868
H      -0.95846040      0.94250415      1.61537606
H      -1.51386543     -1.51987679     -1.15014210
H      -1.86205970     -1.26580022      0.57002107
H      -2.66117199     -0.27051935     -0.66364461
H       0.67320792     -1.16546829     -1.06828174
H       1.82021777      1.25392032      0.08973379
H       1.67914042      0.91560962     -1.50989360
H       1.78767501     -1.21438603      1.03191208
