12
b3lypvtz=-189828.01805475
C       2.06245596      0.27298688     -1.02757996
C       1.02486769     -0.09721321     -0.05517083
O       1.91030518     -1.08475446     -0.62251215
C      -0.39201447     -0.20073149     -0.44154306
N      -1.30294817      0.00832288      0.42175190
N      -2.60774919     -0.15546540      0.05448435
H       2.96356420      0.76869831     -0.67956515
H       1.78159919      0.48564707     -2.05514045
H       1.19383167      0.11753229      0.99448043
H      -0.61104414     -0.47915754     -1.47792953
H      -3.21565999      0.38816437      0.64617400
H      -2.80720793     -0.02402967     -0.93333876
