14
b3lypvtz=-193017.30355522
O       2.54170921      0.87189662     -0.92476268
C       1.78110064      0.30661763      0.14535219
C       0.54290792     -0.30213480     -0.42745137
C      -0.69085482     -0.04940919     -0.00463637
C      -1.92485165     -0.68346859     -0.56784656
O      -2.86325027      0.28591667     -1.03721565
H       3.41213869      1.10574802     -0.59001026
H       2.36601278     -0.47120565      0.65461618
H       1.51653236      1.06594734      0.89013376
H       0.70489103     -1.00660396     -1.23897195
H      -0.85482355      0.67293918      0.79082192
H      -1.65718945     -1.39389558     -1.35869300
H      -2.45811994     -1.23893811      0.20686687
H      -2.41610293      0.83669041     -1.68820306
