13
b3lypvtz=-156464.20871102
C       1.80096956     -0.95369621     -0.00151299
C       0.81118944     -0.07295592      0.07795612
C       0.61460827      1.35447107     -0.19734218
C      -0.70422575      1.31646983      0.06509915
C      -0.70240989     -0.16109726      0.44191297
N      -1.60888835     -1.02103752     -0.29298644
H       2.79137487     -0.67158758     -0.33630281
H       1.64679664     -1.99373006      0.25849846
H       1.29325744      2.14805842     -0.47923616
H      -1.49758366      2.05030821      0.03755286
H      -0.86037862     -0.33123001      1.51021709
H      -1.39840604     -0.99694713     -1.28445481
H      -1.52499391     -1.98340885      0.01138775
