14
b3lypvtz=-167316.5946381
C      -2.84839167     -0.47563102     -0.12764854
C      -1.80223914      0.35134123     -0.04569871
N      -0.47696821     -0.01815516      0.00611316
C       0.58795604      0.84751930      0.08997876
C       1.86854063      0.46036745      0.13890075
N       2.18946622     -0.93945070      0.10353475
H      -2.73126903     -1.55103451     -0.16121958
H      -3.85034780     -0.07843987     -0.16234477
H      -1.95373891      1.42445776     -0.01378724
H      -0.23055649     -0.99725055     -0.01723804
H       0.33085859      1.89851837      0.11556080
H       2.64931430      1.21011667      0.20454649
H       2.77666117     -1.16733106     -0.69096532
H       2.69755528     -1.22648092      0.93262249
