20
b3lypvtz=-148715.25764652
C       2.83923368     -0.21157268      0.15159580
C       1.49579566      0.35828818     -0.30460438
C       0.30448516     -0.47992121      0.16528645
C      -1.07304608     -0.01300901     -0.33258001
C      -2.15244925     -1.03639431      0.03460447
C      -1.45004574      1.37588401      0.19423751
H       2.99053466     -1.22297702     -0.23242986
H       3.67210956      0.40266566     -0.19495276
H       2.89627412     -0.26233460      1.24136024
H       1.48075309      0.42268486     -1.39749547
H       1.40019624      1.38324489      0.06185581
H       0.45849538     -1.51398309     -0.16139047
H       0.29335109     -0.50991899      1.26157789
H      -1.02684632      0.04429762     -1.42663590
H      -2.24083080     -1.13633544      1.11990278
H      -1.92039468     -2.02313707     -0.37108911
H      -3.12967360     -0.73761172     -0.34995130
H      -0.74000656      2.14177122     -0.11886543
H      -2.43595900      1.67516408     -0.16692787
H      -1.48392862      1.37881760      1.28746262
