12
b3lypvtz=-166587.13838749
C       2.14923608     -0.00924003     -0.00000765
C       0.65752780      0.02046817     -0.00001533
C      -0.17887567      1.10511639     -0.00001132
N      -1.45806956      0.59007165      0.00003925
H      -2.31294556      1.11798254     -0.00001255
C      -1.34217173     -0.76497002     -0.00003754
N      -0.08710019     -1.14057951      0.00006364
H       2.52785721     -0.53522925      0.87860042
H       2.52785238     -0.53534204     -0.87854983
H       2.56375911      0.99890356     -0.00007355
H       0.01231145      2.16343341      0.00003010
H      -2.19880030     -1.41921789     -0.00003463
