10
b3lypvtz=-222410.84616925
C      -2.17308069     -0.80944226      0.00000237
C      -1.06668866     -0.07412737      0.00000675
F      -1.17520493      1.27912850      0.00001678
C       0.29986972     -0.55050280      0.00000566
C       1.35160523      0.26045047      0.00001167
F       2.60220909     -0.22484458     -0.00002493
H      -2.10636119     -1.88612388      0.00000071
H      -3.14700464     -0.34480173      0.00000506
H       0.45220651     -1.62124448     -0.00000640
H       1.31931756      1.33986514     -0.00002567
