14
b3lypvtz=-169700.90857583
C       2.35977135      0.04016566     -0.10068599
C       1.16086736      0.03338399     -0.04882709
C      -0.31031656     -0.00063394      0.02816806
C      -0.84420245     -1.24444400     -0.69848757
C      -0.90793545      1.28099808     -0.55756321
O      -0.72726308     -0.01943644      1.40384978
H       3.42016706      0.05542489     -0.14516185
H      -0.56714585     -1.23226536     -1.75293882
H      -0.43730070     -2.15277937     -0.25227144
H      -1.93071563     -1.26877845     -0.61444077
H      -1.99314629      1.24616999     -0.46001472
H      -0.53465240      2.14797064     -0.01555115
H      -0.64712523      1.38168966     -1.61016436
H      -0.25942412     -0.73238835      1.85173012
