10
b3lypvtz=-191491.19024866
O       1.94721413      0.83921174     -1.46451784
C       1.17628387      0.44356083     -0.65622254
O       1.14306133      0.74969420      0.70552030
C       0.08732592     -0.23635294      0.89998388
C      -1.12226612      0.19560641      0.17460079
C       0.01742173     -0.50809483     -0.57854092
H       0.17580470     -0.90157353      1.74295455
H      -2.00713916     -0.41636904      0.29607395
H      -1.30195411      1.25144937      0.02104621
H      -0.11585229     -1.41723222     -1.14089839
