15
b3lypvtz=-157249.1118368
C       2.08187517     -0.00975060      0.10374847
N       0.69932388      0.01707935     -0.32589026
C      -0.07820073      1.14714449     -0.05048344
C      -1.37043670      0.87146233      0.14188814
C      -1.57655011     -0.61773932     -0.03426535
C      -0.12836912     -1.14136195      0.05412358
H       2.58609790      0.90253080     -0.21550214
H       2.18686890     -0.10086384      1.19668587
H       2.59643990     -0.85414786     -0.35690953
H       0.39567238      2.11867551     -0.06183559
H      -2.15884485      1.59604303      0.26427599
H      -2.01436648     -0.83767054     -1.01507931
H      -2.22438633     -1.07336403      0.71551793
H       0.07126654     -1.99599635     -0.59226911
H       0.10446565     -1.43195203      1.09026576
