15
b3lypvtz=-180558.22428637
C      -2.81811551     -0.17864462      0.00004727
C      -1.33944318     -0.49732140     -0.00009723
O      -0.62380615      0.75384746     -0.00026407
C       0.71679363      0.68484801     -0.00028958
N       1.37634193     -0.38684528     -0.00005552
C       2.82224748     -0.29116859      0.00003561
H      -3.09357300      0.39702911     -0.88400896
H      -3.39586193     -1.10416569      0.00017276
H      -3.09337060      0.39714194      0.88409329
H      -1.04334943     -1.07219625     -0.87915293
H      -1.04314422     -1.07206644      0.87897335
H       1.14423817      1.69162710     -0.00017326
H       3.22361429     -0.80210320      0.87769289
H       3.19772120      0.74129800      0.00000194
H       3.22375431     -0.80221417     -0.87749356
