14
b3lypvtz=-193036.97233767
C      -1.36573731      1.32253255      0.20595265
C      -0.96532847     -0.11888403      0.01069632
O      -1.54996977     -0.85535891     -0.75098800
C       0.25035843     -0.62202207      0.78201797
C       1.50065602     -0.64550688     -0.10710494
O       1.91242043      0.65250978     -0.52633444
H      -2.23034278      1.56120223     -0.40824808
H      -1.59048226      1.51705439      1.25756117
H      -0.52295944      1.96232319     -0.06663877
H       0.03711521     -1.64370423      1.10260869
H       0.44106057     -0.01351612      1.66981097
H       1.28212993     -1.20107570     -1.01865583
H       2.31164092     -1.16262899      0.41537298
H       2.32276552      1.10194978      0.21864431
