17
b3lypvtz=-158016.18871738
C      -1.23867258      1.41669292     -0.02220033
C      -0.84120560     -0.03273934     -0.31904025
C      -2.01804426     -0.98018842     -0.07015889
C       0.38815558     -0.48914995      0.49954968
C       1.64881120      0.27895353      0.21009784
N       2.70791308     -0.15041122     -0.33736139
H      -2.11693389      1.70114983     -0.60424068
H      -0.44301485      2.12136480     -0.26522890
H      -1.48778439      1.54298927      1.03497524
H      -0.57070527     -0.10090135     -1.37793528
H      -2.88227844     -0.69708100     -0.67372709
H      -2.32365357     -0.95486705      0.97921598
H      -1.76049427     -2.01174169     -0.31736608
H       0.15015236     -0.38640483      1.56531830
H       0.57347448     -1.55046789      0.31157765
H       1.64797450      1.33121380      0.50432258
H       2.61597190     -1.14296741     -0.57104338
