12
b3lypvtz=-194866.57581337
C      -1.67595523     -0.24834764     -0.27939872
C      -0.27921324      0.34359066     -0.23462883
N      -0.02097547      1.56509355     -0.49698856
C       0.81492265     -0.57532307      0.13676153
C       2.08008413     -0.18229212      0.21151884
F       3.05960588     -1.03191138      0.55038255
H      -2.32814445      0.28011160      0.41802368
H      -2.09858499     -0.13277511     -1.27895780
H      -1.69288330     -1.30672629     -0.02406064
H      -0.86981494      2.07642954     -0.73618407
H       0.57806571     -1.60789772      0.35634133
H       2.43289325      0.82004798      0.01496849
