9
b3lypvtz=-222447.26454753
C      -0.83915142      0.13407884      0.54563125
N      -1.41893989     -0.95041112      0.29539230
O      -1.47490997      1.22931335      0.98842518
O       0.48851261      0.48416433      0.44888012
N       1.32217706     -0.61725047     -0.02656825
N       2.47872787     -0.28928955     -0.10378453
H      -0.78290470     -1.66867336     -0.02910445
H      -2.40797600      0.98504427      1.05671642
H       2.63446442      0.69302370      0.18007357
