13
b3lypvtz=-156471.9759291631
C      -0.57213868      1.82493168     -0.15890019
C      -0.43302405      0.51143202     -0.02700345
C      -1.39695846     -0.67043243      0.16129193
C      -0.12075439     -1.50732038      0.16870573
C       0.69132959     -0.43392226      0.00217689
N       2.02928100     -0.20894068     -0.10725365
H      -1.54849355      2.29107634     -0.14637603
H       0.28136033      2.48049260     -0.28381600
H      -2.08493198     -0.83400787     -0.67320092
H      -1.97115611     -0.64505026      1.09193317
H       0.05375000     -2.56783283      0.27057034
H       2.38126693      0.72044449     -0.22855199
H       2.69046938     -0.96087041     -0.06957585
