13
b3lypvtz=-179751.62466911846
C       1.32070251     -1.23717258      0.26936545
C       1.97664166     -0.13774995      0.04994522
C       0.54352315      0.03641482      0.35596710
C      -0.48031911      0.46616446     -0.68189933
N      -1.83589438      0.21068925     -0.17002147
O       0.20975563      0.53591730      1.63293366
H       1.35290479     -2.30243647      0.42352895
H       2.92560382      0.34781324     -0.10390753
H      -0.26108363     -0.02662893     -1.63477553
H      -0.39066376      1.54487268     -0.83427337
H      -2.53063537      0.72882856     -0.69145765
H      -2.07250609     -0.77164728     -0.24512915
H      -0.75802919      0.60493492      1.62972366
