12
b3lypvtz=-192274.16750394
C       2.76472346     -0.21311619     -0.28533325
C       1.69099730      0.23510165      0.35005825
C       0.33108696     -0.35854416      0.20454702
O      -0.58854374      0.71019941     -0.15316981
C      -1.88658910      0.38446128     -0.17301566
O      -2.34871167     -0.69589666      0.06975584
H       3.74198974      0.22065434     -0.12135928
H       2.70663921     -1.03633667     -0.98766455
H       1.77248250      1.06449226      1.04483673
H      -0.01776911     -0.80494817      1.13775274
H       0.30230252     -1.12657522     -0.56833880
H      -2.47323206      1.27007113     -0.45008122
