13
b3lypvtz=-179796.81542904
C      -2.10406215     -0.58569915      0.15741555
C      -0.84536587      0.16638257     -0.09146651
C       0.39330927     -0.25065343      0.24906289
N       1.45826321      0.57923492     -0.05959777
C       2.65502962      0.25821686      0.22743883
O      -1.03479329      1.35053602     -0.71047086
H      -2.61845192     -0.78338771     -0.78575824
H      -2.78197353      0.00699099      0.77580062
H      -1.90324365     -1.53109385      0.65697320
H       0.54803895     -1.20346132      0.74727335
H       2.91575067     -0.67907096      0.72856490
H       3.46425053      0.93369422     -0.02981730
H      -0.14675186      1.73831085     -0.81371622
