13
b3lypvtz=-156465.49302211
C      -1.91105206     -0.59089085      0.23019614
C      -0.76779254      0.02087302      0.55194257
C       0.51022248     -0.76403427      0.78875880
C       1.65684883     -0.25874415      0.03515981
C       2.59270089      0.17551223     -0.57746777
N      -0.64303181      1.38377638      0.80486887
H      -1.95532278     -1.66365859      0.12481616
H      -2.83053637     -0.03746600      0.09024696
H       0.33819801     -1.81029477      0.53660339
H       0.75315937     -0.72514565      1.85620151
H       3.42438963      0.54430552     -1.12403084
H       0.24688298      1.77954045      0.53841805
H      -1.41466663      1.94622669      0.48085046
