13
b3lypvtz=-156493.48836582
C       2.15072944     -0.03453387     -0.00008010
C       0.81879136     -0.03178718     -0.00000162
C      -0.03591327      1.16141178     -0.00001675
N      -1.29250535      0.95094727     -0.00004273
C      -1.52999310     -0.50126067     -0.00003410
C      -0.14564424     -1.20020295      0.00010199
H       2.70915914      0.89301016     -0.00015076
H       2.72560323     -0.95135819     -0.00009290
H       0.36258765      2.17212678     -0.00005973
H      -2.13205230     -0.75321758     -0.87537923
H      -2.13222774     -0.75319837      0.87519380
H      -0.00532966     -1.83167584      0.87806613
H      -0.00525617     -1.83193034     -0.87766500
