8
b3lypvtz=-193325.84756017
C      -1.50725836      0.04850265     -0.16096681
C      -0.05512706     -0.01368221     -0.21289604
C       1.14569317     -0.08047808     -0.26548337
C       2.50921843     -0.15668608     -0.32531515
N       3.66206383     -0.22385303     -0.37759131
F      -1.93233685      1.16073085      0.55002905
H      -1.90468152     -0.84426431      0.32798519
H      -1.91757161      0.10973020     -1.17186328
