18
b3lypvtz=-168831.61628173
C       2.69252411     -0.00242921      0.15703513
N       1.39949499      0.09213233     -0.50262566
C       0.28574651     -0.32008008      0.33196128
N      -0.96769998     -0.15826100     -0.38142061
C      -1.30336418      1.24022155     -0.61312684
C      -2.05980616     -0.87550269      0.25259389
H       3.48036679      0.26715250     -0.54622613
H       2.92262616     -1.00125390      0.56156078
H       2.73507541      0.70566307      0.98729382
H       1.38685203     -0.46169942     -1.35088377
H       0.35327265     -1.37483169      0.64302185
H       0.32411613      0.28557657      1.25645798
H      -2.16051146      1.30669344     -1.28449178
H      -0.45631611      1.74282281     -1.07347330
H      -1.55808242      1.77132171      0.32085546
H      -2.31312929     -0.48595708      1.25430366
H      -1.80670266     -1.93160416      0.35399180
H      -2.95446254     -0.79996472     -0.36682756
