13
b3lypvtz=-231399.45948103
C      -2.00494939     -0.57398712     -0.41585146
O      -1.25426261     -0.13591748      0.71477810
C       0.04789705      0.33851474      0.45331101
O       0.06153379      1.44741878     -0.41231195
C       0.95088726     -0.72347308     -0.15770541
F       2.27703580     -0.33572091     -0.01510710
H      -3.03292802     -0.68190999     -0.07704153
H      -1.96776937      0.15581482     -1.22619909
H      -1.65682436     -1.54350610     -0.78501583
H       0.44021545      0.60399603      1.43875198
H      -0.31874833      2.20109489      0.05047826
H       0.74821782     -0.84656541     -1.22238988
H       0.81165390     -1.66974817      0.36702989
