8
b3lypvtz=-211654.76981264
O       0.97706169     -0.05633311     -0.07589074
C       2.17262386     -0.04441786     -0.06969560
N       3.05080251      1.03086149     -0.06658578
H       2.75642639      1.99108584     -0.06944832
C       4.32184750      0.53608203     -0.05927703
N       4.35599522     -0.74746791     -0.05727589
O       2.99032287     -1.14600533     -0.06392995
H       5.21171996      1.14429485     -0.05549669
