15
b3lypvtz=-180568.05038819
C       2.58060546     -0.37100085      0.00034083
C       1.32086265      0.46724481     -0.00004512
O       0.19834394     -0.43547831      0.00010842
C      -1.03423127      0.11476383      0.00006354
C      -2.08484694     -0.96226491      0.00021722
N      -1.19345342      1.37267179     -0.00009788
H       3.45688049      0.27911234      0.00019937
H       2.62707031     -1.00799226     -0.88348426
H       2.62691581     -1.00740011      0.88460061
H       1.25628340      1.11116037      0.87818988
H       1.25646771      1.11061994     -0.87869305
H      -1.96744142     -1.59859804     -0.87802115
H      -1.96728735     -1.59850447      0.87850177
H      -3.08408915     -0.53281700      0.00027844
H      -2.18014222      1.60984786     -0.00009862
