15
b3lypvtz=-157250.57030687
C       0.39056780      1.92040142     -0.12692219
C       0.23977295      0.61414036      0.11076522
C       1.39204941     -0.27542954     -0.14718386
N       1.50181745     -1.52241112      0.07323204
C      -1.05441469      0.02896511      0.61845233
C      -1.88162076     -0.66173417     -0.47740424
H      -0.40393302      2.63224568      0.05668925
H       1.32193260      2.31643071     -0.51256816
H       2.26253368      0.22711741     -0.57539120
H       0.64612239     -1.90705701      0.47709172
H      -0.84471995     -0.68561352      1.42009149
H      -1.64752970      0.82558192      1.06969970
H      -2.16174906      0.05075946     -1.25415733
H      -1.32646582     -1.46949663     -0.95485610
H      -2.79653630     -1.08390108     -0.05935767
