13
b3lypvtz=-179788.10891707
O       3.05616851     -0.75242132      0.40186084
C       1.87790691     -0.24936470      0.82805562
N       0.82580452     -0.30629263      0.14181287
C      -0.37648526      0.24905869      0.66555023
C      -1.67083389     -0.44015827      0.31786275
C      -1.33363344      0.88317014     -0.31065231
H       2.89999889     -1.12954671     -0.47644338
H       1.97870656      0.19517589      1.81925510
H      -0.31533666      0.70245338      1.65288035
H      -1.59283632     -1.32277516     -0.30022934
H      -2.44438947     -0.47527419      1.07230662
H      -1.03111724      0.88277231     -1.34776991
H      -1.87395312      1.76320257      0.00931057
