11
b3lypvtz=-179020.6843335
O      -1.36977287      2.11108340     -0.13663995
C      -0.89551977      1.02383048      0.02570488
N      -1.27440584     -0.24499355     -0.45344622
C      -0.11833700     -0.89262421      0.17549020
C       1.16641657     -0.28102839     -0.26782592
C       0.29751999      0.44069619      0.76407441
H      -1.56635514     -0.41025739     -1.40896586
H      -0.22093648     -1.83921991      0.68269978
H       1.25685904      0.12113826     -1.26934400
H       2.07638908     -0.70994195      0.13394844
H       0.64814242      0.68121706      1.75440424
