14
b3lypvtz=-167299.767206
N      -2.52778295      0.00034771      0.11048083
C      -1.29554768     -0.00000960      0.40601605
C      -0.12727098     -0.00016886     -0.53030645
C       0.96335284     -1.05293048     -0.17288955
N       1.71011777      0.00003457      0.54860604
C       0.96284695      1.05287182     -0.17260086
H      -2.65840753      0.00065325     -0.90435848
H      -1.03475914     -0.00016775      1.46811907
H      -0.47037629     -0.00018747     -1.56446099
H       1.45923891     -1.43164540     -1.07346041
H       0.65607214     -1.89909563      0.44488677
H       2.71494174      0.00021248      0.42726504
H       1.45853438      1.43201223     -1.07309046
H       0.65475984      1.89862013      0.44534239
