13
b3lypvtz=-177379.98012257
C       2.10384974     -0.83285870      0.00968479
C       0.86198571      0.00329008      0.00032723
N       1.05021070      1.35354019     -0.05505304
C      -0.37713358     -0.56138956     -0.00341332
N      -1.48407591      0.25890729      0.02340586
N      -2.59488543     -0.32894542     -0.01058141
H       2.70990871     -0.62936528     -0.87628406
H       2.71724635     -0.60233029      0.88545224
H       1.86166963     -1.89239642      0.03169585
H       0.22789671      1.92282076      0.07160485
H       1.92028080      1.73315267      0.27437444
H      -0.51146812     -1.63679126     -0.03197603
H      -3.31245531      0.40492895      0.02742159
