13
b3lypvtz=-234010.52748748
C       1.98374573      0.54793422     -0.30244219
N       1.28328145     -0.71656671     -0.09309565
C       0.16490004     -0.70447766      0.82424478
C      -1.11596970     -0.03515112      0.34507943
F      -1.47567144     -0.54043261     -0.87949191
F      -0.95096182      1.31625661      0.18161961
H       2.33962506      0.92229087      0.65968180
H       1.38658343      1.33812481     -0.77001748
H       2.86010423      0.36286091     -0.92463422
H       1.00790507     -1.12788833     -0.97513375
H       0.46405686     -0.21807815      1.75629078
H      -0.10209929     -1.73608393      1.07348761
H      -1.95877163     -0.18405892      1.02562219
