15
b3lypvtz=-178133.85261621
C       0.73302163      0.14348756     -0.80104548
C      -0.62170876     -0.53535655     -0.63790196
C      -0.48110390      0.96603942     -0.44340461
N      -0.67795164      1.52233028      0.86995427
N      -0.81722206     -1.32600503      0.55168508
N       1.80592492      0.01076725      0.15141626
H       1.09408394      0.24020260     -1.81729095
H      -1.12187254     -0.85673119     -1.54819415
H      -0.89155005      1.57860975     -1.23780105
H       0.09544761      2.12224426      1.13171511
H      -0.74043673      0.77813189      1.55458007
H      -0.37342766     -2.23268128      0.46936961
H      -1.80137409     -1.48231417      0.73108389
H       1.43178607     -0.12100191      1.08288597
H       2.36638327     -0.80772288     -0.05705206
