15
b3lypvtz=-157221.09299914
C       1.80397625     -0.09693462      0.10386098
C       0.81390138      1.08742626     -0.01593833
C      -0.28331398      0.02337506     -0.06583050
C      -1.48744121     -0.07834579      0.81792455
C      -1.63464322      0.07552269     -0.68828513
N       0.71311049     -1.03587094     -0.28310454
H       2.65069244     -0.10309929     -0.58321410
H       2.17394360     -0.23549120      1.12347204
H       0.91680469      1.64509577     -0.94625904
H       0.78148172      1.78211071      0.82131336
H      -1.72364301     -1.04542901      1.24500160
H      -1.74312766      0.76274829      1.45026540
H      -1.95447991     -0.79172688     -1.25120512
H      -1.99105644      1.02194570     -1.07458401
H       0.61459788     -1.83911376      0.32676483
