14
b3lypvtz=-190597.61986401
N      -2.61234473     -0.32349528      0.12115295
C      -1.33517236      0.02092076     -0.50921945
C      -0.34990776      0.53292678      0.55295619
C       0.95474928      0.96594045     -0.04252031
N       1.98994812      0.25746230     -0.25051382
O       1.81055066     -1.08014852      0.16115209
H      -2.50158439     -1.14164017      0.70998097
H      -3.29852090     -0.56777706     -0.58299983
H      -0.86580187     -0.80845122     -1.05189620
H      -1.52534721      0.81293309     -1.23708288
H      -0.16859080     -0.25830758      1.28160084
H      -0.81117930      1.37324316      1.07357975
H       1.07479181      1.99578702     -0.36432093
H       2.66988846     -1.46757073     -0.03048338
