15
b3lypvtz=-178152.61628527
C       2.47447638     -0.08546103      0.44871041
N       1.37883940      0.14043008     -0.49273236
C       0.20791898     -0.63954012     -0.24355352
C      -0.97598607     -0.03893708     -0.02015434
N      -2.19193610     -0.72485310      0.07623071
N      -1.11455195      1.33826188      0.13140109
H       3.33807893      0.51500304      0.15618721
H       2.16489203      0.22728842      1.44655017
H       2.79260901     -1.13673044      0.51280162
H       1.71552556      0.00162651     -1.43873806
H       0.27812331     -1.72598221     -0.20433675
H      -2.74375310     -0.42742892      0.87052187
H      -2.08060926     -1.72807671      0.07057099
H      -0.24754779      1.80619840     -0.09927356
H      -1.89875634      1.71723629     -0.38169147
