15
b3lypvtz=-178161.15121733
C       2.15594816     -0.67849152      0.04267168
N       1.36926050      0.53504497      0.03575672
C       0.09690183      0.44047711     -0.04586250
N      -0.68147261      1.59281966      0.07715081
N      -0.62569279     -0.72385900     -0.22715220
C      -2.03060018     -0.85933694      0.12642566
H       1.83969680     -1.40223604      0.81124094
H       3.19601004     -0.43004700      0.25197247
H       2.13881311     -1.20059211     -0.92477277
H      -1.46116931      1.65753842     -0.56074305
H      -0.09407913      2.41288982      0.04373481
H      -0.07787661     -1.56153226     -0.14220777
H      -2.67392076     -0.31356403     -0.56730658
H      -2.30365653     -1.91078584      0.05335770
H      -2.24848850     -0.51053825      1.13926708
