13
b3lypvtz=-156489.7229262
C      -2.12596950      0.01969613      0.00028543
C      -0.80051830      0.01807457     -0.00021615
C       0.11729213      1.22438550     -0.00020161
C       1.47367892      0.56298073      0.00017068
N       1.49183824     -0.70480434      0.00022393
C       0.10893096     -1.20240958     -0.00041523
H      -2.69321616     -0.90299263      0.00034039
H      -2.69768281      0.93920381      0.00065930
H      -0.01844011      1.86554533      0.87628546
H      -0.01814147      1.86539419     -0.87685174
H       2.40196365      1.12851373      0.00043807
H      -0.04190392     -1.83925823      0.87553446
H      -0.04093163     -1.83847220     -0.87706901
