15
b3lypvtz=-178168.51187836
C       2.62924635     -0.21730167     -0.03483737
C       1.28207904      0.44587885      0.21425255
N       0.20006558     -0.42812310     -0.24081434
C      -1.14434490     -0.13810710     -0.03708728
N      -2.09335432     -0.98491811      0.10380570
N      -1.43364428      1.22134402      0.01042761
H       2.71857912     -1.14967050      0.52751747
H       3.44141650      0.43718445      0.28163202
H       2.76271352     -0.44403988     -1.09343623
H       1.24228627      1.38780727     -0.33625384
H       1.17511523      0.69545003      1.27592369
H       0.40024699     -1.40988250     -0.12912926
H      -1.74208266     -1.93616166      0.16921364
H      -0.92640403      1.80132405     -0.63990827
H      -2.42933641      1.37938884     -0.01778608
