13
b3lypvtz=-203102.30107465
O       2.81317180     -0.92527089      0.19125399
C       1.77439564     -0.09187279      0.38968519
N       0.72024411     -0.13223365     -0.29289375
C      -0.35356750      0.80522065      0.00133490
C      -1.67086027      0.04403066      0.11258112
O      -1.96419600     -0.66801594     -1.07659491
H       2.57683420     -1.50937659     -0.54452421
H       1.98318453      0.60316338      1.20493223
H      -0.17384060      1.38068300      0.91962344
H      -0.43231764      1.50872836     -0.83187954
H      -2.49147097      0.74462397      0.27441368
H      -1.62877558     -0.63192732      0.97684041
H      -1.15280170     -1.12765284     -1.32487255
