16
b3lypvtz=-168078.1043613
C      -0.48130919      1.66640312      0.18166673
C      -0.00863054      0.44525002     -0.12526004
N      -0.76397422     -0.71937868     -0.14497560
C      -2.18937701     -0.67476643      0.10374085
N       1.33512407      0.21373240     -0.48030463
C       2.11789361     -0.71207889      0.34356195
H      -1.53427305      1.86100923      0.30511379
H       0.19776545      2.49687057      0.30513122
H      -0.48532053     -1.34639921     -0.88476365
H      -2.73979204     -0.05570603     -0.61641799
H      -2.37795832     -0.27617116      1.10133112
H      -2.58665744     -1.68808218      0.06369611
H       1.81413682      1.09475759     -0.59424503
H       1.64780234     -1.69242447      0.35618946
H       3.10969139     -0.81945875     -0.09493015
H       2.22651065     -0.37656213      1.38286484
