12
b3lypvtz=-166561.794447
C      -2.28784795     -0.53955720     -0.38163932
C      -1.10664471     -0.22804038      0.53584322
N      -0.45245781      0.99633523      0.10754567
C       0.78486503      1.01960980     -0.15541836
C       1.69710194     -0.10404910     -0.06982554
N       2.45118013     -0.97374771     -0.01524244
H      -2.97552005      0.30457496     -0.42311440
H      -2.82665061     -1.41246494     -0.01210283
H      -1.94701583     -0.75372820     -1.39503224
H      -0.42149741     -1.08132968      0.58839611
H      -1.47924071     -0.03636192      1.54585718
H       1.24111199      1.95261414     -0.47726805
