11
b3lypvtz=-202347.03858477
N       1.31972130     -0.47508535     -0.96789440
C       0.87140309     -0.01416482      0.11536285
O       1.68398307      0.33731088      1.15605581
C      -0.60567805      0.18271210      0.34591088
C      -1.46129139     -0.23941554     -0.83485722
O      -2.46387341     -0.89149931     -0.71366220
H       2.33633107     -0.54346258     -0.95014995
H       1.16396812      0.64785101      1.90592009
H      -0.93828520     -0.36540898      1.23066701
H      -0.79638255      1.24802416      0.53155192
H      -1.10979603      0.11323844     -1.81890477
