17
b3lypvtz=-158005.41422911
C       2.26874163     -0.07220499      0.50824467
C       1.06050469      0.00919656     -0.40263799
C       0.00000018      1.11082843     -0.16751930
C      -1.06050448      0.00919670     -0.40263796
C      -2.26874140     -0.07220466      0.50824474
N       0.00000004     -1.00239945     -0.15184157
H       2.83963297     -0.98472754      0.32104048
H       2.93597440      0.77820347      0.34641494
H       1.95641896     -0.07889746      1.55333749
H       1.38810336      0.01993636     -1.45077812
H       0.00000022      1.96296287     -0.84388256
H       0.00000025      1.46513146      0.86411189
H      -1.38810319      0.01993657     -1.45077808
H      -1.95641867     -0.07889734      1.55333754
H      -2.83963299     -0.98472702      0.32104045
H      -2.93597394      0.77820400      0.34641516
H      -0.00000004     -1.80428696     -0.77157277
