16
b3lypvtz=-170485.03230975
C      -2.17074290     -0.01362281     -0.07871221
C      -0.98937572     -0.12204085     -0.67085362
C       0.35613449      0.00301216      0.01218603
C       1.23377855     -1.20621535     -0.34551837
C       1.03757741      1.30757607     -0.41220584
O       0.21923967      0.09620394      1.43409768
H      -3.09095373     -0.11667107     -0.63809529
H      -2.25494005      0.19772330      0.97941169
H      -0.94312052     -0.31356301     -1.73928674
H       2.20202455     -1.11825803      0.14773569
H       0.76065653     -2.13570542     -0.02082822
H       1.39638841     -1.27385955     -1.42263304
H       1.15736863      1.34936484     -1.49516493
H       0.43724241      2.15919959     -0.09473367
H       2.02182155      1.38045552      0.05180497
H      -0.18823327     -0.71759032      1.75045687
