15
b3lypvtz=-180533.5620408
C      -2.00692660     -0.98584266     -0.08882908
C      -0.93566412     -0.06673231      0.43260147
C      -0.80786875      1.35179320      0.00528724
N       0.11660264      0.33508204     -0.49464305
C       1.45404351      0.39209981      0.03826410
O       2.00351392     -0.90864787     -0.07258078
H      -2.27223516     -0.72197171     -1.11249743
H      -2.90561621     -0.92585528      0.52896963
H      -1.65943602     -2.02055225     -0.08595247
H      -0.60723510     -0.27229451      1.44905322
H      -0.43627803      2.06616147      0.73399738
H      -1.48531031      1.76622341     -0.73136746
H       1.46239019      0.72092266      1.09449964
H       2.02308657      1.11858666     -0.55456310
H       2.87793447     -0.90333864      0.32766069
