15
b3lypvtz=-180553.52173664
N      -2.14238262      0.04498754     -0.07589870
C      -0.76264336     -0.05007214      0.38006396
C       0.12804959     -1.18211679     -0.16866417
C       1.52741937     -0.63131854      0.07557191
O       1.42195187      0.79343505     -0.06494428
C       0.05146356      1.18871411     -0.01447899
H      -2.69126207     -0.73595154      0.26190167
H      -2.18603009      0.02419590     -1.08918380
H      -0.78855371     -0.12351650      1.47068813
H      -0.05908217     -1.30332973     -1.23939655
H      -0.04597507     -2.14153455      0.31938285
H       1.87855176     -0.87312092      1.08595340
H       2.27096698     -0.99339401     -0.63595413
H      -0.06368125      2.00952706      0.69527112
H      -0.26736180      1.54706506     -1.00170642
