16
b3lypvtz=-196387.13538498
C      -1.73010869     -0.71439659     -0.43765505
N      -1.23445854      0.12880381      0.64987354
C       0.13318579      0.64426652      0.55875089
C       0.30131512      1.58161407     -0.63855579
C       1.24536346     -0.40498665      0.60606771
F       1.32111619     -1.14002799     -0.58284723
H      -1.75047779     -0.14627741     -1.36772821
H      -2.75947863     -0.99476914     -0.21095597
H      -1.15251306     -1.62844005     -0.61744185
H      -1.35826901     -0.34570735      1.53494625
H       0.27976213      1.23870820      1.46881503
H      -0.50774520      2.31101640     -0.65343392
H       1.25048271      2.11587715     -0.57457472
H       0.29577294      1.03408982     -1.57996309
H       2.21883107      0.07181817      0.75163955
H       1.07338854     -1.11897296      1.41561384
