14
b3lypvtz=-167323.36871583
C       2.63340589     -0.05439668     -0.00007556
N       1.25015577      0.37149164      0.00005869
C       0.34741177     -0.51460702      0.00015324
C      -1.09409351     -0.16552655      0.00005140
C      -1.46497391      1.29178868      0.00011253
N      -1.90161425     -1.15244945     -0.00013144
H       3.13399926      0.36366104      0.87592549
H       2.76076098     -1.14411572     -0.00027516
H       3.13392390      0.36397804     -0.87596614
H       0.55304153     -1.59157398     -0.00006354
H      -2.54726533      1.41532686     -0.00003394
H      -1.04200138      1.79197162     -0.87214318
H      -1.04226104      1.79184154      0.87257045
H      -2.87060767     -0.83126402     -0.00025984
