12
b3lypvtz=-168938.00655971
C      -2.03563116      0.24777121     -0.23824585
C      -0.58999404      0.60043371     -0.10617790
C       0.40196872     -0.28184874      0.06287237
C       1.77099061      0.09422646      0.18379391
C       2.94222606      0.34655586      0.29161682
O       0.13843672     -1.63473310      0.12956100
H      -2.19402280     -0.82688145     -0.18002681
H      -2.43818098      0.60311599     -1.19126149
H      -2.62716184      0.72528636      0.54825959
H      -0.30913754      1.64376596     -0.14891329
H       3.97184208      0.58720650      0.38501479
H       0.96866417     -2.10489875      0.25224559
