11
b3lypvtz=-179052.51200307
C      -1.85547564     -0.01527512      0.02078945
C      -0.37498605     -0.09643598     -0.01524097
N       0.37375389     -1.12544702     -0.24182538
C       1.67550962     -0.64630944     -0.15773442
C       1.64319872      0.67205801      0.12022355
O       0.32857223      1.04719981      0.21638578
H      -2.22681918      0.68713984     -0.72756707
H      -2.20474039      0.32596215      0.99692153
H      -2.26753141     -1.00040152     -0.18027898
H       2.52801200     -1.28657737     -0.30355034
H       2.38050617      1.43808666      0.27187687
