9
b3lypvtz=-178250.99644248
N       3.83733351      0.49544472     -0.62773623
C       2.70674717      0.27378623     -0.52866122
C       1.37051150      0.01343811     -0.40806544
C       0.19290626     -0.22059604     -0.30218328
C      -1.24064526     -0.46958980     -0.16353768
O      -2.04603141      0.53866695     -0.75131484
H      -1.49470314     -1.39900861     -0.67599109
H      -1.47289456     -0.61230865      0.89865684
H      -1.85332406      1.38016708     -0.32446705
