14
b3lypvtz=-169727.46901246
C       2.08153919     -0.63710486     -0.00003296
C       0.79633928      0.16048224      0.00014928
O       0.79736909      1.37467667      0.00009345
C      -0.47172171     -0.62269660      0.00010046
C      -1.66284290     -0.03904258      0.74233003
C      -1.66271090     -0.03901773     -0.74235147
H       2.93683187      0.03366211     -0.00025471
H       2.12072518     -1.28710019      0.87772000
H       2.12034037     -1.28719238     -0.87773468
H      -0.37146797     -1.69930778      0.00006958
H      -2.30193022     -0.73566804      1.26603198
H      -1.48448072      0.90333763      1.24023310
H      -2.30170939     -0.73559932     -1.26621334
H      -1.48421918      0.90338183     -1.24017270
