15
b3lypvtz=-180548.931919
C      -1.99348405      0.13936932     -0.73007336
O      -1.39505265     -0.41785359      0.42827265
C      -0.29540796      0.33681451      0.91136793
C       0.96621763      0.16933757      0.08051567
C       1.38807358     -1.24831534     -0.20841141
N       1.58094806      1.22086091     -0.27894262
H      -2.35717959      1.15515072     -0.53682055
H      -2.83605621     -0.49895807     -0.99032514
H      -1.29936362      0.17727144     -1.57710991
H      -0.10538287     -0.03242846      1.92307659
H      -0.53326800      1.40324190      0.96684227
H       1.66524848     -1.75276178      0.72169184
H       2.23826530     -1.27839246     -0.88936988
H       0.56042474     -1.81713481     -0.63398184
H       2.43028616      0.99086715     -0.79832423
