15
b3lypvtz=-157245.66777616
C       2.28457230     -0.02211219     -0.24394198
C       0.93033645     -0.00355354      0.44127118
C      -0.08913401      1.10304562      0.02428753
C      -1.15272955      0.02428588     -0.07354479
N      -2.40813136      0.11226966     -0.11259338
C      -0.11317672     -1.08957106      0.02862862
H       2.17311972     -0.02283846     -1.33116345
H       2.87766120      0.85364203      0.02824415
H       2.85789764     -0.90969106      0.03259581
H       1.05854641     -0.00432218      1.52473805
H       0.14154455      1.53506751     -0.95312101
H      -0.28529984      1.91363965      0.72524860
H      -2.84087774     -0.81330778     -0.12545489
H      -0.32215954     -1.89335993      0.73541212
H       0.10868650     -1.53033414     -0.94710056
