12
b3lypvtz=-189833.11555893
N      -2.41496314      1.16824971      0.12840110
C      -1.68487732      0.15165967     -0.05065779
C      -0.24055510      0.11492650     -0.47334361
C       0.61572581     -0.72192208      0.43709913
N       1.87056676     -0.89158321      0.33608203
O       2.39651639     -0.19500909     -0.76640223
H      -1.89111923      2.03019702     -0.04373888
H      -2.14966258     -0.82570239      0.11034633
H       0.17111154      1.12538585     -0.54241741
H      -0.17300238     -0.30481061     -1.48478949
H       0.16591336     -1.24411749      1.27484744
H       3.33414588     -0.40707388     -0.71942661
