8
b3lypvtz=-188338.80691117
C      -0.45343434     -0.62400056     -0.47884529
N      -1.60172066     -0.52370448     -0.99221140
C       0.18481255      0.50699150      0.29944464
O      -0.35591421      1.56866859      0.47776824
C       1.52624836      0.23252196      0.83563095
N       2.57463563     -0.02092949      1.23864469
H       0.12091089     -1.54313509     -0.58299201
H      -1.99553822      0.40358757     -0.79743983
