11
b3lypvtz=-202338.83456983
C      -0.49317901      0.35326043      0.30035762
C      -0.65050964      1.86550344      0.34424744
O      -1.54748867      2.42183059      0.91741024
N       0.82987012     -0.00387628     -0.16897057
C       1.23065087     -1.19544460     -0.09394868
O       0.58487064     -2.29009425      0.37923299
H      -0.73624605     -0.02707644      1.30171554
H      -1.27405759     -0.01846935     -0.37881567
H       0.13322626      2.41673757     -0.21097050
H       2.22365939     -1.46677824     -0.43606985
H      -0.30079633     -2.05559287      0.68373350
