15
b3lypvtz=-157243.62522654
C      -1.40029082     -0.00000003      0.35208301
C      -0.63372846      1.22833539     -0.18948185
C       0.79160462      0.74283526     -0.37986325
N       1.42845347      0.00000023      0.71654636
C       0.79160476     -0.74283496     -0.37986322
C      -0.63372824     -1.22833534     -0.18948180
H      -1.39555548     -0.00000001      1.44306296
H      -2.44739193     -0.00000013      0.05187374
H      -0.70662247      2.09156755      0.47607402
H      -1.03208632      1.53790365     -1.15977740
H       1.47019256      1.32671149     -0.98923872
H       0.85088668      0.00000019      1.55121507
H       1.47019279     -1.32671109     -0.98923867
H      -0.70662210     -2.09156749      0.47607409
H      -1.03208605     -1.53790370     -1.15977735
