13
b3lypvtz=-203095.6377147
N       0.81753586      1.01262223     -0.77650417
C       0.18874811      0.18467046     -0.05524370
C       0.98865929     -0.68463867      0.88689666
O       2.35699088     -0.37908949      0.86244169
C      -1.31670995      0.00373407     -0.05591679
O      -1.97006682      0.71789260     -1.08946522
H       0.17811010      1.55370980     -1.35917010
H       0.82508978     -1.73643763      0.61148045
H       0.59017641     -0.56656612      1.90407779
H       2.45311822      0.31720828      0.19139616
H      -1.71594955      0.39014267      0.88530660
H      -1.55843088     -1.06528295     -0.08423343
H      -1.83717145      0.25193475     -1.92106594
