14
b3lypvtz=-167320.17036906
C       0.66513196      1.24202482      0.06955266
C      -0.66513248      1.24202460     -0.06955233
N      -1.40928236      0.05027690     -0.18997328
C      -0.71157929     -1.14368807      0.27948005
C       0.71157950     -1.14368776     -0.27948002
N       1.40928220      0.05027737      0.18997343
H       1.22108818      2.16533045      0.12827454
H      -1.22108908      2.16533006     -0.12827411
H      -2.34608315      0.12800774      0.17576956
H      -1.24284556     -2.03049383     -0.07049362
H      -0.65501413     -1.18976485      1.37472193
H       0.65501432     -1.18976456     -1.37472188
H       1.24284600     -2.03049341      0.07049356
H       2.34608289      0.12800853     -0.17576950
