13
b3lypvtz=-156491.46760334
C       1.28100996      1.34769554      0.08796825
C       1.14365386     -0.08531586     -0.36085835
C       0.76856712     -1.16588508      0.60019501
C      -0.22255658     -0.75174734     -0.47599137
C      -1.41036715     -0.03667992     -0.11105447
N      -2.36314088      0.54283329      0.17966309
H       0.55162136      1.59668008      0.85899230
H       1.13203856      2.03674574     -0.74484953
H       2.27768284      1.52291809      0.49692890
H       1.82311942     -0.37864834     -1.15185261
H       1.21270995     -2.14587484      0.49972948
H       0.53165575     -0.87564996      1.61432443
H      -0.36497920     -1.43634939     -1.30121914
