15
b3lypvtz=-157263.47939412
N      -2.16532241     -0.13631325      0.00151041
C      -0.90378613     -0.03393955     -0.01086927
C      -0.04541763      1.22370390      0.10387136
C       1.38476960      0.76139387     -0.21624611
C       1.40838829     -0.70715734      0.24781559
C       0.01919061     -1.23381529     -0.13977713
H      -2.60713283      0.78131499      0.08126847
H      -0.10922118      1.59084348      1.13308766
H      -0.41148806      2.02094065     -0.54403261
H       2.14914718      1.37206364      0.26356383
H       1.55900986      0.80990402     -1.29412324
H       1.53488559     -0.74897937      1.33291734
H       2.22326393     -1.27869453     -0.19544238
H      -0.33552792     -2.07335913      0.45574779
H       0.01174710     -1.55749508     -1.18557472
