18
b3lypvtz=-147940.46289515
C      -1.80507151     -1.06683431     -0.14160567
C      -0.68684235     -0.17470241      0.36622743
C      -0.76423867      1.35579289      0.12423236
C       0.76423882      1.35579284     -0.12423244
C       0.68684250     -0.17470247     -0.36622745
C       1.80507160     -1.06683441      0.14160569
H      -2.73764331     -0.88148320      0.39704780
H      -1.56015766     -2.12482480     -0.01923714
H      -1.99481033     -0.88955644     -1.20309827
H      -0.51773684     -0.36385509      1.43097925
H      -1.15019507      1.97888153      0.93072186
H      -1.32072223      1.58415026     -0.78696758
H       1.32072229      1.58415017      0.78696757
H       1.15019534      1.97888148     -0.93072189
H       0.51773696     -0.36385520     -1.43097926
H       1.56015740     -2.12482487      0.01923768
H       1.99481077     -0.88955616      1.20309816
H       2.73764331     -0.88148381     -0.39704811
