13
b3lypvtz=-203094.23782264
C       2.55012668     -0.15194661     -0.00002098
O       1.24764366      0.40093685      0.00000841
C       0.23224494     -0.56558355      0.00000661
C      -1.12219254      0.11508081     -0.00000285
N      -1.34987724      1.34948653     -0.00001338
O      -2.17527737     -0.75072927      0.00000097
H       2.72416017     -0.76647683     -0.89105372
H       2.72418888     -0.76650707      0.89098522
H       3.25021184      0.68044089     -0.00001810
H       0.30594306     -1.21498168      0.88650075
H       0.30595236     -1.21498719     -0.88648283
H      -0.46764270      1.85544677     -0.00001322
H      -1.86306372     -1.66169066     -0.00000486
