11
b3lypvtz=-202313.90204338462
C      -0.98186300     -0.86844846      0.35599959
C       0.09132351      0.08146295     -0.03315211
N      -0.13861518      1.37702028     -0.00615783
O      -1.19792994      1.95387352      0.32111495
C       1.43573824     -0.29525912     -0.46169176
O       2.30085359      0.50139682     -0.77703932
H      -1.31302316     -0.68205374      1.38024108
H      -1.86029675     -0.74440980     -0.28155420
H      -0.62929147     -1.89576387      0.27850762
H       0.66594292      1.95556222     -0.29298993
H       1.62716124     -1.38338079     -0.48327809
