10
b3lypvtz=-217431.63408372
N      -2.07635412     -0.77864203      0.00001635
C      -1.04348390      0.11295064     -0.00013368
O      -1.22600866      1.31892642     -0.00008284
C       0.30636990     -0.50905225     -0.00009103
C       1.37578543      0.27218666      0.00003042
F       2.61682269     -0.22434682      0.00010650
H      -3.01472585     -0.41806990      0.00021692
H      -1.93407104     -1.77173081      0.00016561
H       0.42205800     -1.58515200     -0.00013679
H       1.34161655      1.35274209      0.00005755
