11
b3lypvtz=-155692.57638777
C      -2.15570301     -0.72553751      0.00002624
C      -1.12544466     -0.10609143     -0.00002819
C       0.13546301      0.57528649      0.00014971
C       0.21258473      1.91270643      0.00017573
N       1.34801928     -0.15623119     -0.00011385
C       1.33257230     -1.42444404     -0.00027702
H      -3.07886736     -1.24989395     -0.00013380
H      -0.67500169      2.52715000      0.00020606
H       1.18321139      2.38702337      0.00014804
H       2.28362892     -1.94918922     -0.00014043
H       0.41963708     -2.02469594     -0.00016451
