12
b3lypvtz=-166514.84035408357
C       0.53826180     -1.28586739      0.00437069
C       1.41320208     -0.25725366     -0.01820188
N       0.80937471      1.11825289     -0.02205869
C      -0.52264508      1.25351750     -0.00434859
N      -1.31510284      0.22067589      0.01689464
C      -0.86360817     -1.14071200      0.02357085
H       0.94284757     -2.29002404      0.00786145
H       2.48511054     -0.29514702     -0.03386593
H       1.38522553      1.93641683     -0.03766707
H      -0.95521565      2.24368185     -0.00768616
H      -2.30450496      0.40143542      0.02920676
H      -1.61294552     -1.90497627      0.04192397
