11
b3lypvtz=-179000.0890835064
C      -0.75495733      1.04319759     -0.07343033
C      -1.17804672     -0.20699265     -0.00784918
N       0.01260743     -1.09985545      0.06408688
H      -0.03986414     -1.66197916      0.91853018
H      -0.01204055     -1.75662560     -0.72134564
C       1.18628184     -0.20986268      0.03253879
C       0.76709191      1.12179274     -0.05218271
O       1.38846346      2.18532111     -0.10364548
H      -1.38086113      1.91998358     -0.13513803
H      -2.14809580     -0.67417039      0.00295327
H       2.15942101     -0.66080909      0.07548225
