14
b3lypvtz=-167331.29973904
C       1.86636719     -0.03093365     -0.49832337
C       0.73105409      0.04420307      0.52036514
C      -0.26941672      1.20464446      0.25217945
N      -1.44692736      0.59688911     -0.39665181
C      -1.30608389     -0.66054117     -0.25811477
N      -0.18913388     -1.10795626      0.42884172
H       2.51742678      0.84073564     -0.40749112
H       1.47265634     -0.05589973     -1.51629792
H       2.48146268     -0.92050091     -0.34431201
H       1.14632350      0.10354471      1.52713916
H       0.15818555      1.98268998     -0.38254776
H      -0.58660897      1.67982285      1.18435243
H      -2.03149356     -1.38306632     -0.61564815
H       0.19357124     -2.00897077      0.18401501
