13
b3lypvtz=-156466.64155898
C       3.02234949      0.35470641     -0.00643809
C       1.85238763     -0.58881267      0.00685398
C       0.58784803     -0.21750862      0.01020447
C      -0.62043834      0.14210535      0.01715327
C      -1.88245454      0.53897489      0.00723455
N      -2.99657854     -0.28434839     -0.07840702
H       3.66020878      0.20272396      0.86938381
H       2.69396867      1.39283989     -0.01231600
H       3.65023383      0.18978750     -0.88710990
H       2.07595681     -1.65173873      0.01243973
H      -2.11438643      1.59898668      0.00711186
H      -3.83969121      0.07748028      0.33753781
H      -2.83789018     -1.25757856      0.13090252
