13
b3lypvtz=-203070.98341339975
C       2.58519165      0.31445660     -0.82839846
O       1.45186806     -0.31372458     -0.22139075
C       0.29437945      0.34534537     -0.32228932
N      -0.64353797     -0.35823281      0.30229427
C      -2.02882839      0.05835197      0.29877015
O      -2.82643029     -0.68723097     -0.59620550
H       2.27934416      1.24536415     -1.30253682
H       3.32851645      0.50885570     -0.05505385
H       3.00273998     -0.36982950     -1.56732213
H      -0.42575132     -1.26399930      0.71521510
H      -2.46285409     -0.10781893      1.28379468
H      -2.03027087      1.12363750      0.06623259
H      -2.52436681     -0.49517519     -1.49114746
