11
b3lypvtz=-199874.25260087213
C      -2.25395440      0.08352368      0.35519211
N      -1.15143902     -0.52063864     -0.03502752
C       0.14544622     -0.15413080      0.00043424
N       0.98899178     -1.07869193     -0.51085783
N       2.21939211     -0.95556905     -0.58095744
O       2.66101375      0.31999183     -0.04095029
H      -3.19134603     -0.42374195      0.21823637
H      -2.19502133      1.06289346      0.79879481
H      -1.25646539     -1.44452368     -0.44847091
H       0.42015704      0.80193122      0.41149480
H       3.61322524      0.25724178     -0.16788835
