11
b3lypvtz=-178981.74396326
C       2.18336086     -0.60776403     -0.00706134
C       0.85556982     -0.69536492      0.01018581
C      -0.08348829      0.42649460      0.00889187
C       0.17501011      1.74045154     -0.00954625
N      -1.51596981      0.16396249      0.02973610
O      -1.83133174     -1.00261942      0.04697838
H       2.71011853      0.33842235     -0.02428754
H       2.79693823     -1.49833504     -0.00439626
H       0.38005953     -1.66779867      0.02713987
H      -0.65554825      2.43271207     -0.00721548
H       1.17824601      2.14156803     -0.02674515
