12
b3lypvtz=-189862.65501521
N      -0.03721955      1.38150220      0.00001325
C      -0.08587156      0.11591117      0.00001369
C      -1.41429491     -0.62117663      0.00000510
O      -2.47408461     -0.04969246     -0.00001053
C       1.16525692     -0.73664379      0.00001116
N       2.43681116     -0.03924673     -0.00000396
H      -0.99032306      1.75832227      0.00001699
H      -1.36362576     -1.72753901     -0.00004502
H       1.12270978     -1.40494322     -0.86841628
H       1.12272153     -1.40492782      0.86845132
H       2.48203408      0.57761778     -0.80393938
H       2.48204098      0.57763923      0.80391464
