16
b3lypvtz=-168073.97767702
C       1.94563904     -0.75115817      0.39507438
N       1.03213542     -0.46900383     -0.70977253
C      -0.15244386      0.36008990     -0.43832060
C       0.23527667      1.71360554      0.15998850
C      -1.18057491     -0.34465427      0.42502034
N      -2.37507321     -0.63894117      0.12010902
H       2.43260345      0.16693612      0.72344933
H       2.72832110     -1.41579465      0.02896845
H       1.49059323     -1.22528571      1.27500338
H       0.73865622     -1.33502123     -1.14349084
H      -0.62058534      0.54169610     -1.41153899
H       1.01776183      2.17616405     -0.44276730
H      -0.62930628      2.37711552      0.18053222
H       0.60124994      1.61687653      1.18308723
H      -0.83721190     -0.64907803      1.41761199
H      -2.59760139     -0.30795670     -0.82358658
