9
b3lypvtz=-175864.67771238
N       2.44785458     -0.86677929     -0.00005831
C       1.63162618     -0.05309039     -0.00000252
C       0.65320071      1.00945189      0.00001649
N      -0.61301487      0.87224453      0.00000884
C      -1.18339145     -0.41954517     -0.00000914
N      -2.43248965     -0.60692748     -0.00000240
H       1.06974204      2.01297164      0.00003544
H      -0.51154733     -1.27986796     -0.00000653
H      -2.91640621      0.29445223      0.00000412
