11
b3lypvtz=-199911.93380432
N      -1.61429256     -0.07007484     -0.39487990
C      -0.28564077      0.12870348     -0.15972713
N       0.23417865      1.30696141     -0.60138240
C       0.49465368     -0.81290644      0.48834718
N       1.75877672     -0.43719327      0.82050510
O       2.46946505     -1.27794105      1.38184030
H      -1.97787533     -0.98691056     -0.19721293
H      -2.01872070      0.38256418     -1.19852482
H      -0.37067488      2.11254764     -0.58524920
H       1.18162573      1.46041556     -0.28005136
H       0.12850442     -1.80626610      0.72643516
