15
b3lypvtz=-180539.27025603
N      -1.74134334      0.62777368      0.58313113
C      -1.41954024     -0.45992926     -0.33852729
C       0.08001514     -0.63966451     -0.46869450
C       0.94404972     -0.70166652      0.80647895
C       1.67775591      0.50733437      0.20732781
O       0.73811443      0.58803636     -0.89367224
H      -2.74204002      0.70568211      0.71073887
H      -1.41905233      1.50395059      0.18911234
H      -1.82893719     -0.32083223     -1.34992262
H      -1.84035154     -1.39155864      0.05151721
H       0.28520276     -1.44698568     -1.18021858
H       0.38593830     -0.47781326      1.71142982
H       1.53296407     -1.60661442      0.93781686
H       1.68028072      1.42220505      0.80284281
H       2.69116361      0.30603236     -0.15050658
