13
b3lypvtz=-179789.56443784
C      -2.23793990      0.48793724      0.19805782
C      -1.53912986     -0.61650435     -0.07223801
N      -0.16972047     -0.80908560     -0.16582738
C       0.87312236      0.08668459     -0.04569122
C       0.84837580      1.42096228     -0.14637948
O       2.01713858     -0.63366051      0.19179047
H      -3.31432210      0.41630728      0.23633258
H      -1.79554553      1.44637241      0.40884041
H      -2.07320700     -1.54139725     -0.25318764
H       0.13853344     -1.76217909     -0.25225966
H       1.75388419      1.98718045      0.01525370
H      -0.04177095      1.95750229     -0.41612348
H       2.77310445     -0.04601773      0.09700389
