13
b3lypvtz=-203063.93063989477
C       0.04041845      1.58178964      0.54873637
C       0.19846771      0.17186176      0.10588476
N       1.38364589     -0.33593301     -0.07931183
O       2.52169293      0.20775931      0.08878964
C      -1.00056715     -0.68690189     -0.19570020
O      -0.68077659     -2.05879981     -0.40447803
H      -0.51003599      2.16926565     -0.19233272
H      -0.52032980      1.64087094      1.48589906
H       1.02216367      2.02687003      0.69190585
H       1.37771703     -1.30908877     -0.40592785
H      -1.48280932     -0.34737684     -1.11816346
H      -1.74281380     -0.56768709      0.60260517
H      -0.60677301     -2.49262993      0.45152067
