11
b3lypvtz=-176648.96357592
C       0.83257414     -0.05117219     -0.51398114
C       1.46524607     -0.90055517      0.48805508
N       1.92437517     -1.57682916      1.29788503
C      -0.57602549      0.43388736     -0.13955328
N      -1.07270756      1.53620459     -0.53484496
N      -1.32283723     -0.46306449      0.57485622
H       1.46741642      0.81457229     -0.69895020
H       0.76476858     -0.61593095     -1.44742500
H      -0.41976350      2.06632998     -1.10258725
H      -2.20729716     -0.11526891      0.90860228
H      -0.85574946     -1.12817334      1.16794323
