16
b3lypvtz=-168079.88436095
C      -2.12782322     -0.92998965     -0.20981106
C      -1.15378145     -0.05793533      0.07597074
N      -1.31687747      1.31990545      0.16645622
C       0.24664638     -0.50634449      0.41682349
N       1.23826249      0.20858552     -0.38946539
C       2.61515649     -0.07144346     -0.00244085
H      -1.93542776     -1.99188751     -0.19821770
H      -3.13784771     -0.60759733     -0.42793249
H      -0.47883851      1.82926953     -0.07647579
H      -2.14466692      1.69033657     -0.27286853
H       0.31371917     -1.59758168      0.31848785
H       0.44868222     -0.26176272      1.46489533
H       1.10257686     -0.03111123     -1.36515638
H       2.79435829      0.30771988      1.00541801
H       2.87228880     -1.14171138     -0.00654176
H       3.29706333      0.44567381     -0.67774268
