14
b3lypvtz=-169716.96744061
C       2.85593153     -0.21085556      0.16391671
C       1.69946483      0.43908854      0.01795603
C       0.40519320     -0.20787897     -0.09956857
C      -0.75513719      0.43872691     -0.25450464
C      -2.08770338     -0.22951381     -0.36963344
O      -3.00860856      0.21866889      0.62792475
H       2.89533959     -1.29298095      0.20230241
H       3.79616927      0.31615247      0.24831119
H       1.70071509      1.52454703     -0.01819083
H       0.40199691     -1.29479518     -0.06134187
H      -0.76672059      1.52478682     -0.28596874
H      -2.56188478      0.02379408     -1.32066785
H      -1.96943489     -1.31903829     -0.33985637
H      -2.60532104      0.06929802      1.48932121
