13
b3lypvtz=-179775.79315258
C       2.10593850     -0.77340572      0.02469236
N       0.97930087     -0.01029011     -0.49702772
C       0.67787813      1.24351067      0.14472966
C      -0.20913461      0.04928654      0.35743712
C      -1.51778806     -0.03647159     -0.33686056
O      -2.53668470     -0.41237699      0.18568102
H       2.23644188     -0.66426288      1.11036639
H       3.01801777     -0.43694516     -0.46906973
H       1.96061392     -1.82902127     -0.20429425
H       0.35694244      2.05033301     -0.50336791
H       1.26902580      1.54662580      1.00391256
H      -0.17186906     -0.41863808      1.33612667
H      -1.48784587      0.28319577     -1.39873063
