14
b3lypvtz=-188222.51440819
C       0.68731251     -0.00128956      0.15204687
C      -0.62467207      0.00106642     -0.13803036
N      -1.46988460     -1.13356336     -0.03443377
N      -1.34295076      1.13880835     -0.58768039
N       1.36377021     -1.09421486      0.74836302
N       1.55531047      1.08916671     -0.10309297
H      -0.93372161     -1.99069182     -0.00219479
H      -2.08313502     -1.18151935     -0.84236069
H      -2.24058448      1.18855330     -0.11558400
H      -0.84093815      1.99396603     -0.38790113
H       0.77450254     -1.74723041      1.23878504
H       2.02470409     -1.56558118      0.14244628
H       1.90117962      1.55884224      0.72511993
H       1.22910725      1.74368752     -0.79548301
