12
b3lypvtz=-189873.37378063
C      -1.44381919      1.29525921     -0.09949517
C      -1.01728227      0.02753307     -0.05646643
O      -1.89619778     -0.99389149      0.16241700
N       0.28239010     -0.42914867     -0.26966446
C       1.26126922      0.22146154      0.22804894
N       2.55380170     -0.08142813     -0.04807038
H      -2.48585747      1.52550531      0.05806518
H      -0.76475972      2.09709296     -0.33937784
H      -1.38811626     -1.81120402      0.10290089
H       1.12414782      1.08162918      0.88793564
H       3.28373776      0.27100185      0.54353796
H       2.74224310     -0.91773583     -0.57599833
