13
b3lypvtz=-179791.10679338
N       2.59787979     -0.52222981     -0.40517598
C       1.71820570      0.39534568      0.32989125
C       0.28953152     -0.02658452      0.20390531
C      -0.73542823      0.77187203     -0.09804609
C      -2.12432322      0.27509834     -0.16484699
O      -2.46964037     -0.85979621      0.07694116
H       3.55858340     -0.20704824     -0.34278170
H       2.56961909     -1.44677807      0.01023465
H       1.84583185      1.39856353     -0.08032797
H       1.95305243      0.46106193      1.40558199
H       0.06965964     -1.07355580      0.39768625
H      -0.58134673      1.82357165     -0.31617074
H      -2.87561586      1.03268650     -0.46554815
