14
b3lypvtz=-167321.48828329
C       3.05942348     -0.10112620      0.00000549
C       1.82604427      0.40543213     -0.00002830
N       0.65145176     -0.32258291      0.00002768
C      -0.61225139      0.21599879     -0.00001935
N      -1.64874225     -0.50966686      0.00004597
C      -2.94250539      0.15741526      0.00003606
H       3.24557528     -1.16715992      0.00007319
H       3.91400242      0.55648011     -0.00003747
H       1.66900796      1.47755332     -0.00010629
H       0.69508101     -1.33108850      0.00009287
H      -0.61535967      1.31263983     -0.00006291
H      -3.08436990      0.78581676      0.88615916
H      -3.73227309     -0.59223351     -0.00020669
H      -3.08418848      0.78622267     -0.88582939
