12
b3lypvtz=-166571.07796021
C      -2.04350339     -0.02198790     -0.00000803
N      -0.59670634      0.02163670     -0.00001246
C       0.20664896      1.11277926     -0.00000992
C       1.50594034      0.65363375      0.00004445
C       1.37949263     -0.74744366     -0.00005777
N       0.10505988     -1.12576140      0.00008427
H      -2.40325978     -0.54380914     -0.88620840
H      -2.42786478      0.99540495     -0.00013434
H      -2.40326618     -0.54359432      0.88631762
H      -0.19782078      2.11045744      0.00001984
H       2.40583734      1.24275942      0.00004453
H       2.15749211     -1.49344110     -0.00009181
