15
b3lypvtz=-180546.14430856
C       1.90471331     -0.86879528      0.09596852
O       1.22853296      0.32537072     -0.26017996
C      -0.08880647      0.42712015      0.26352428
C      -0.54435734      1.86512572      0.05009297
C      -1.02107740     -0.54475504     -0.43430085
N      -1.84757263     -1.34379229      0.09322544
H       2.89543983     -0.81596345     -0.35125964
H       2.00826123     -0.95584511      1.18443121
H       1.39295622     -1.76188370     -0.27788458
H      -0.08058475      0.19289780      1.33869035
H       0.15355706      2.54787882      0.53434608
H      -0.57101152      2.09981013     -1.01484766
H      -1.53994475      2.01984335      0.46677565
H      -0.95498551     -0.52219481     -1.52601056
H      -1.81252024     -1.28229899      1.11470074
