14
b3lypvtz=-195608.96030283
C      -2.31035817     -0.54069648      0.16298174
N      -1.09774829     -0.06504931     -0.48711563
C      -0.57333651      1.21947946     -0.04106235
C       0.11547818     -0.04760791      0.31842603
C       1.36695752     -0.49268441     -0.37829338
F       2.48631023      0.05328409      0.25492564
H      -2.37507117     -0.25581529      1.22304509
H      -3.17813703     -0.13209748     -0.35631641
H      -2.35380964     -1.62841222      0.09463850
H      -0.16556534      1.86085616     -0.81316442
H      -1.10238816      1.73556106      0.75403178
H       0.02939351     -0.36487281      1.35466656
H       1.47351480     -1.57973165     -0.34927282
H       1.36290807     -0.16025520     -1.41708533
