9
b3lypvtz=-199154.68392918393
C      -1.06081795     -0.67217570     -0.05796133
N      -1.13449402      0.61665193     -0.22958679
N       0.05643103      1.26281839     -0.15071779
C       0.96681979      0.29182397      0.09316186
N       2.21136891      0.32628960      0.25565412
O       0.18193726     -1.01863572      0.15229411
H      -1.87445014     -1.37627875     -0.07877343
H      -1.96840182      1.15205344     -0.40881096
H       2.62160694     -0.58254717      0.42474021
