13
b3lypvtz=-179793.45408042
N      -2.13684743     -0.08656699      0.05091623
C      -0.87833452      0.00047742     -0.01109002
C       0.02920225      1.21396972     -0.14012527
C       1.39918492      0.63263855      0.21692861
O       1.34702580     -0.72653919     -0.22041596
C       0.03709423     -1.20885412      0.05455951
H      -2.57784145      0.83269410      0.00707643
H      -0.28904191      2.03558588      0.50090750
H       0.01755893      1.56133683     -1.17627053
H       2.23457281      1.11170688     -0.28945896
H       1.57157602      0.68015677      1.30027261
H      -0.22565652     -1.96712741     -0.68170085
H      -0.02043814     -1.66015245      1.05431870
