12
b3lypvtz=-189884.17936827
C      -2.89504803      0.16097900      0.00003093
N      -1.60580424     -0.49757158      0.00000561
C      -0.57015065      0.21956921      0.00001090
N       0.69885027     -0.33854753     -0.00001164
C       1.87059070      0.37393660     -0.00000686
O       2.96945251     -0.12516347     -0.00001628
H      -3.46365841     -0.15420421     -0.87716102
H      -3.46364100     -0.15423836      0.87722188
H      -2.83175883      1.25744501      0.00005181
H      -0.57008255      1.31483421      0.00003284
H       0.76366678     -1.34819815     -0.00003354
H       1.70177445      1.46430126      0.00003437
