13
b3lypvtz=-179792.99120433
N       1.39684041      0.66302971     -1.00889299
C       1.17493079      0.13530813      0.11615705
O       2.18504616     -0.13618450      1.00060229
C      -0.19412189     -0.23075913      0.56720340
C      -1.19862151     -0.71454910     -0.45791195
C      -1.36095168      0.63831978      0.14602237
H       2.38923481      0.84312083     -1.14302500
H       1.82893903     -0.53554564      1.80145927
H      -0.25761890     -0.67802953      1.55173919
H      -0.83642526     -0.76614176     -1.47413283
H      -1.87219652     -1.50429098     -0.15597914
H      -2.14795869      0.79483009      0.87036049
H      -1.10719675      1.49089212     -0.46660213
