12
b3lypvtz=-215565.27436609
C      -0.82458618     -0.18054829      0.08445305
C      -2.02122618      0.72757983     -0.08852506
O      -3.11659335      0.46242355      0.32931020
O       0.26935784      0.37628694     -0.62294497
C       1.45760286     -0.37058186     -0.53168351
O       2.00425310     -0.39222406      0.76207905
H      -1.08024052     -1.17921859     -0.29226861
H      -0.60666233     -0.27596573      1.15354010
H      -1.80804472      1.66977638     -0.63252466
H       2.13605792      0.08578939     -1.25500426
H       1.27884443     -1.41820449     -0.79083691
H       2.31123712      0.49488693      0.97901687
