16
b3lypvtz=-193790.13786031
C       2.25178435     -0.49506378      0.06238628
C       1.13009023      0.38319715     -0.49371341
C      -0.07156177      0.55197351      0.44443510
O      -0.93393891      1.58525469     -0.02297803
C      -0.88744008     -0.72339130      0.65617544
O      -1.59494655     -1.09267237     -0.53238825
H       2.61235246     -0.11262269      1.01992352
H       3.10114094     -0.52082957     -0.62131118
H       1.93202952     -1.52686795      0.22116538
H       0.78474473     -0.00648459     -1.45756937
H       1.51198074      1.38459534     -0.69929328
H       0.29419830      0.88307601      1.42180662
H      -1.51786285      1.17935933     -0.67635575
H      -0.26067601     -1.54485815      1.01496687
H      -1.65598497     -0.53061742      1.40410746
H      -0.98429311     -1.52141619     -1.13885739
