12
b3lypvtz=-192259.50780332
O       2.25397151     -0.24088847     -1.08205983
C       1.37642295     -0.50917067     -0.29214383
C       0.09445238      0.21389170     -0.27271437
O      -0.01331066      1.21641619     -1.22852396
C      -1.15742208     -0.55928123      0.09601769
C      -0.58671991      0.42677597      1.06570951
H       1.49413614     -1.31415044      0.45739711
H       0.82624167      1.20488398     -1.71414601
H      -1.07364619     -1.61599807      0.31138625
H      -2.03440165     -0.26871014     -0.46417276
H      -1.07755975      1.38450212      1.16177366
H      -0.10226442      0.06192907      1.96137652
