14
b3lypvtz=-167324.67871715
C       2.12316033     -0.95980092      0.06012158
C       1.09964917     -0.09004003     -0.01846428
N       1.29618895      1.30260412      0.02754401
C      -0.28589182     -0.53963133     -0.08700088
C      -1.35624309      0.25213006      0.08679288
N      -2.68091816     -0.12508230     -0.06271117
H       1.94247886     -2.02162549      0.13260306
H       3.15161828     -0.62497251      0.08516804
H       2.26997428      1.56459598     -0.01695427
H       0.76494797      1.80512737     -0.67029509
H      -0.43162819     -1.59568003     -0.28577880
H      -1.22357211      1.29870442      0.33214768
H      -2.86036987     -1.11754184     -0.06763791
H      -3.34741260      0.38346850      0.49492515
