9
b3lypvtz=-196721.3532623448
C       1.17749033      0.33730172      0.06311798
N       2.31515677     -0.26480905     -0.12290045
N       3.31595943     -0.77813815     -0.27585066
N       0.05170753     -0.22361100     -0.50909181
N      -0.99874390      0.42396972     -0.27753602
N      -2.08464348     -0.12043077     -0.83167519
H       1.18406125      1.24109606      0.65516162
H      -2.95145015      0.35451671     -0.67944261
H      -2.00953778     -0.96989526     -1.37320151
