13
b3lypvtz=-177367.69875815
C      -1.04123571     -1.06034090     -0.17184362
C      -1.65196345      0.36815559     -0.28116312
N      -0.27566300      0.90071770     -0.44754639
C       0.29293429     -0.34642093     -0.13368042
N       1.47603839     -0.71713355      0.10858554
N       2.41835606      0.34534367      0.12393764
H      -1.29236089     -1.61989327      0.72651719
H      -1.19523858     -1.69017352     -1.04651227
H      -2.29873760      0.55933868     -1.13647422
H      -2.14651825      0.69789363      0.63358149
H       0.04025264      1.74155236      0.01846027
H       2.34002322      0.90405599     -0.72486788
H       3.33411287     -0.08309546      0.12193019
