13
b3lypvtz=-156491.04051412
C       0.60226692      1.61673347      0.00002586
C       0.18785000      0.15618892      0.00000198
C      -1.23612162     -0.06641262     -0.00005026
N      -2.37651109     -0.23143111     -0.00009672
C       1.03333581     -0.85920240      0.74846702
C       1.03338779     -0.85919299     -0.74841707
H       0.22233745      2.13083519     -0.88362078
H       0.22227493      2.13082405      0.88365210
H       1.68954277      1.69570710      0.00006470
H       1.89839833     -0.46878461      1.26620759
H       0.52156660     -1.66123604      1.25958034
H       1.89848568     -0.46876838     -1.26609339
H       0.52165344     -1.66121958     -1.25957637
