14
b3lypvtz=-190621.65679011
C      -1.11594412     -0.50609678      0.66261266
C      -2.15584220      0.27529361     -0.11873432
O      -2.02358905      0.64280786     -1.25721828
N       0.14966511     -0.75186233      0.01747247
C       1.04032385      0.39966452     -0.07268112
N       2.28613334     -0.04721380     -0.67116385
H      -1.59598179     -1.45631640      0.93539040
H      -0.95777942      0.01131645      1.61645464
H      -3.09981178      0.47167898      0.43744344
H       0.01381842     -1.12751297     -0.91423752
H       0.64578543      1.20708737     -0.70228643
H       1.14189117      0.79925303      0.94796500
H       2.88174600      0.73687793     -0.90308831
H       2.78958505     -0.65497746     -0.03635144
