11
b3lypvtz=-176598.56790729
C       2.31894196      0.80163890      0.00027080
C       1.83378829     -0.43870945     -0.00024166
N       0.46311704     -0.81041698      0.00033869
N      -0.35554765      0.13324475     -0.00022137
C      -1.69960272     -0.32976880      0.00032535
N      -2.68663708      0.45840516     -0.00022145
H       3.38645475      0.97029180      0.00008588
H       1.66381651      1.66120323      0.00088441
H       2.48358998     -1.30301278     -0.00097945
H      -1.83051444     -1.41196632      0.00103414
H      -2.35338364      1.42595550     -0.00103135
