15
b3lypvtz=-180561.95698882
O       1.88062123     -0.49397913      0.89369069
C       1.08350814     -0.32100572     -0.28116949
C      -0.16483466     -1.19457373     -0.15156456
C      -1.15548636     -0.25327811      0.54424436
C      -0.85378478      1.09661283     -0.11566286
N       0.60019398      1.04984270     -0.37524918
H       2.21164585      0.38352880      1.11346866
H       1.69116764     -0.57279746     -1.15659129
H       0.04092403     -2.10892692      0.40105042
H      -0.52920320     -1.46406077     -1.14633621
H      -2.19631391     -0.55123681      0.42548166
H      -0.93393782     -0.20842679      1.61107698
H      -1.42423472      1.20101003     -1.04605069
H      -1.11039218      1.94181808      0.52527746
H       0.86022678      1.49557299     -1.24166596
