11
b3lypvtz=-233251.84593065
N       2.57967846      0.19734877     -0.19937297
C       1.55882557     -0.21532262      0.41959978
C       0.27324631     -0.73936049     -0.16909510
C      -0.94672820      0.00776351      0.32832061
F      -0.92725299      1.29741335     -0.12415705
F      -2.08035191     -0.57774670     -0.16437413
H       2.43863538      0.16003447     -1.21160987
H       1.60654250     -0.21253752      1.51229989
H       0.28883453     -0.68434011     -1.25898772
H       0.14780725     -1.78751184      0.11921345
H      -1.03462889      0.03975218      1.41683712
