13
b3lypvtz=-200679.44949599
C       2.15736310     -0.65171051     -0.01683501
N       1.28605232      0.51432073     -0.06399513
C      -0.08511449      0.32794786      0.01444881
N      -0.82853493      1.49515426      0.06539682
N      -0.56579091     -0.86447015      0.04770631
O      -1.99916616     -0.80179689     -0.02716869
H       3.18750059     -0.31575530     -0.12592963
H       2.05891144     -1.22499755      0.91003976
H       1.91577217     -1.31655310     -0.84363117
H       1.59507526      1.27953105      0.51787503
H      -0.48034242      2.22856322     -0.53322171
H      -1.81604903      1.32565736     -0.05225941
H      -2.23434994     -1.73259199     -0.02529797
