12
b3lypvtz=-168930.77180846
C       0.13321103      1.78090188      0.29684750
C       0.07247601      0.46646857      0.06897987
C      -1.20669411     -0.23064282     -0.35501979
O      -1.59567563     -1.26824636      0.53230886
C       1.21183232     -0.38274518      0.20479705
C       2.12365366     -1.16126508      0.30487958
H       1.05601215      2.26676857      0.58119450
H      -0.74872997      2.39992320      0.19922929
H      -2.02431547      0.48859020     -0.36262007
H      -1.08302677     -0.61591244     -1.37497512
H      -0.88533904     -1.91855071      0.56601734
H       2.94659580     -1.82528980      0.39888691
