10
b3lypvtz=-209989.09614005
C      -0.98229777     -0.09693648     -0.11686420
N      -2.01061848      0.57358233      0.19956302
N       0.33099686      0.34713376     -0.07396234
N       1.38149998     -0.41681271     -0.42478045
N       2.46275077      0.18926435     -0.30683480
O      -1.07767175     -1.36558006     -0.54497929
H      -1.79607005      1.51655285      0.50567726
H       0.53019597      1.29303487      0.23482548
H       3.18497197     -0.47363501     -0.59546461
H      -2.02375750     -1.56660389     -0.53492433
