13
b3lypvtz=-179775.48903639
C      -0.11400447      1.32357444      0.18730152
O      -1.01017275      0.67999354     -0.72325578
C      -1.07935004     -0.70486971     -0.37136238
C       0.27773880     -1.03617567      0.21078485
N       1.44848701     -0.54578651     -0.52182126
C       0.89615306      0.26304154      0.56842924
H       0.31022878      2.18577965     -0.33054087
H      -0.64121609      1.67791427      1.08320177
H      -1.32819977     -1.25780107     -1.27903508
H      -1.86267244     -0.88841409      0.37623803
H       0.40884747     -1.94274726      0.78685457
H       1.16554865     -0.16370689     -1.42098788
H       1.52851179      0.40919775      1.43429326
