16
b3lypvtz=-168085.34720742
C      -2.05744381     -1.01911849      0.11651032
C      -1.12018887     -0.07735268     -0.07782702
N      -1.37297578      1.29792120     -0.01280290
N       0.21752030     -0.37011737     -0.37151947
C       1.28317582      0.20540183      0.45903932
C       2.64972259     -0.12275904     -0.12493380
H      -1.78764558     -2.06009262      0.21520663
H      -3.10524067     -0.76310793      0.17541818
H      -2.34960258      1.51811375      0.10568248
H      -0.96684113      1.81493230     -0.78111341
H       0.34110445     -1.36527378     -0.49494126
H       1.13987622      1.28337416      0.49857062
H       1.22087980     -0.15732745      1.49454528
H       2.81630310     -1.20227274     -0.16069312
H       3.44249532      0.31161944      0.48549846
H       2.74062082      0.26463742     -1.14040732
