15
b3lypvtz=-178136.27753245
N      -3.01208001      0.06636102     -0.22153088
C      -1.62987849      0.52757301     -0.11004803
C      -0.59496300     -0.54225936      0.29383376
C       0.78743108      0.00879564      0.44691102
N       1.73219035     -0.34529506     -0.32590347
N       2.99278453      0.15671690     -0.09533195
H      -3.33132125     -0.32089427      0.65932597
H      -3.08321713     -0.67735063     -0.90674384
H      -1.60779535      1.34808821      0.61256283
H      -1.33807416      0.95795977     -1.07072809
H      -0.57091370     -1.33641611     -0.45464691
H      -0.91634090     -0.99221645      1.24100136
H       0.95750668      0.74277020      1.24587535
H       3.52097565      0.16130859     -0.95440920
H       3.00981872      1.06856254      0.35591308
