15
b3lypvtz=-180539.74947247
C      -1.65300878     -0.33023877     -0.72619724
C      -0.61157915      0.21644321      0.22558880
N       0.35294936      1.19440521     -0.34614382
C       1.44155034      0.63936037      0.49410844
C       0.61317256     -0.65776398      0.63976709
O       0.96276279     -1.69406168     -0.25262837
H      -1.18998464     -0.78344283     -1.60244996
H      -2.31131015      0.47013732     -1.07051991
H      -2.26887370     -1.08631659     -0.23524733
H      -1.09926302      0.59357012      1.13471249
H       0.13324935      2.17271122     -0.20406104
H       1.58388022      1.14800177      1.45436869
H       2.40745543      0.54291826     -0.00588905
H       0.57103435     -1.11275049      1.62600284
H       1.06796505     -1.31297313     -1.13141163
