13
b3lypvtz=-203088.57582348
C      -2.08450292     -0.76424526      0.03731620
O      -1.33939119      0.44064577     -0.04034560
C       0.01936899      0.34193364      0.00617248
O       0.58732349      1.58261083      0.02453832
C       0.76626871     -0.76433555     -0.01689865
N       2.18564861     -0.74986153     -0.08802072
H      -3.13220358     -0.47548944      0.03920883
H      -1.84889643     -1.30999002      0.95490267
H      -1.88346227     -1.40509678     -0.82526511
H      -0.11556302      2.22300952      0.18138376
H       0.30034174     -1.73361361     -0.08920971
H       2.54430716      0.19384285     -0.02613029
H       2.60585671     -1.29775344      0.65292082
