14
b3lypvtz=-167331.73128985
C       0.59669353     -1.24581361     -0.07515769
N      -0.66984268     -1.33474909      0.01838657
C      -1.41601388     -0.08665405      0.17893308
C      -0.67907636      1.16160203     -0.31972089
C       0.74772848      1.18118084      0.22620592
N       1.35940629     -0.10459709     -0.06325320
H       1.17657441     -2.15827232     -0.20365829
H      -2.36525517     -0.19223830     -0.35095985
H      -1.67491316      0.02800053      1.23799052
H      -1.20780861      2.06878786     -0.02196886
H      -0.64003230      1.14912130     -1.41148679
H       1.33531348      1.97193040     -0.24327474
H       0.73266754      1.38003783      1.30530014
H       2.35491144     -0.20471033      0.02080509
