12
b3lypvtz=-189857.83029566
N       2.47275695      0.24772440     -0.05542220
C       1.27863699      0.64936627      0.05915869
C       0.02803799     -0.18178449      0.03369502
N      -0.03620231     -1.44728552      0.07557383
C      -1.26772005      0.58455237     -0.04209487
O      -2.39152328     -0.24571440     -0.08219281
H       2.52202447     -0.76842346     -0.17841470
H       1.11989099      1.72236736      0.18075335
H       0.87637637     -1.89865941      0.14223071
H      -1.31322519      1.25945301      0.82584559
H      -1.23464598      1.23301582     -0.92978462
H      -2.05450694     -1.15461196     -0.02934799
