15
b3lypvtz=-157241.18827468
C       2.33015553     -0.65210387      0.07050357
C       1.00937347     -0.70238060     -0.09116060
C       0.07068576      0.42058709      0.07297989
C       0.38488820      1.67911493     -0.24452453
C      -1.31545516      0.07176780      0.59010279
N      -2.15757915     -0.70228617     -0.32976740
H       2.94616184     -1.53049351     -0.06810500
H       2.83574981      0.26118564      0.35803544
H       0.56097798     -1.66188572     -0.33427961
H      -0.31691713      2.48813716     -0.08502555
H       1.34099557      1.93872428     -0.67985988
H      -1.23458218     -0.49994798      1.51787568
H      -1.84137598      0.99595944      0.83523548
H      -1.80619344     -1.64432248     -0.44734755
H      -2.16437211     -0.27104701     -1.24694273
