16
b3lypvtz=-170495.78081285
C      -0.01792225     -0.13931917      1.49777626
C      -0.05025422      0.05923736     -0.03036065
C       1.38316219     -0.02689756     -0.59020732
C      -0.96446377     -0.96743498     -0.69931057
C      -0.54643194      1.47393672     -0.28764792
O      -1.52110544      1.77534212     -0.92534227
H      -1.02157736     -0.10018592      1.92395670
H       0.41359330     -1.11253650      1.73767492
H       0.58999352      0.62402653      1.98820549
H       1.39273737      0.09332701     -1.67464329
H       1.81736655     -0.99980578     -0.35370819
H       2.02916676      0.73985351     -0.15709876
H      -1.00600308     -0.81189342     -1.77724266
H      -0.60070774     -1.97898830     -0.51077410
H      -1.98326132     -0.89156930     -0.31962094
H       0.08570744      2.26290769      0.17834332
