16
b3lypvtz=-193793.67693845
C       1.14586302     -0.76866137     -0.65583081
C      -0.14014169     -0.30452920      0.03773460
C      -1.35970983     -0.53944336     -0.84557465
O      -0.35465152     -1.06842342      1.23025754
C      -0.04949984      1.17515778      0.42395409
O       1.00066886      1.30902026      1.38673304
H       1.29190171     -0.25205914     -1.60696466
H       1.09031369     -1.84010359     -0.84707480
H       2.01383785     -0.57233991     -0.02671038
H      -1.28986635      0.02956112     -1.77385088
H      -2.27139448     -0.25087900     -0.32174330
H      -1.43417696     -1.59756333     -1.09663462
H       0.28842661     -0.75159435      1.87660882
H       0.15591270      1.78717269     -0.46147614
H      -1.00600589      1.48560394      0.85491434
H       0.91852213      2.15908087      1.82555781
