14
b3lypvtz=-146404.4107798
C      -2.95319727      0.40229284      0.00006131
C      -1.59038003     -0.10719760      0.00002900
C      -0.45886449     -0.52325740     -0.00013085
C       0.85446063     -1.06573149     -0.00001062
C       1.99121489     -0.35730072      0.00004516
C       2.10044870      1.13169139      0.00003363
H      -3.50110693      0.06249684      0.88187087
H      -3.50129514      0.06209510     -0.88147646
H      -2.96644026      1.49409003     -0.00018442
H       0.91918014     -2.14896350     -0.00001539
H       2.92380420     -0.91145556      0.00011442
H       2.65456852      1.48054177      0.87632406
H       2.65455481      1.48053585     -0.87626705
H       1.12078824      1.60689044      0.00002935
