9
b3lypvtz=-227448.34456638
C      -1.94040671      0.32423250      0.16641784
N      -0.77234339      0.81339550      0.04481202
C       0.31477094     -0.02168977     -0.01327220
N       1.48237721      0.46906131     -0.13486553
O       2.46293925     -0.51043940     -0.17749797
F       0.11242955     -1.35261559      0.06092155
H      -2.77897878      1.01155951      0.20939152
H      -2.14902719     -0.74333191      0.23002508
H       3.26823910      0.00982787     -0.26933580
