14
b3lypvtz=-167317.05984225
C      -2.73082439     -0.49608204     -0.00001144
C      -1.53454857      0.39900044     -0.00010490
N      -0.35414429     -0.04763435      0.00029780
C       0.75258011      0.89556331      0.00018176
C       2.09249772      0.19384688     -0.00011911
N       2.29870825     -1.05114630     -0.00017723
H      -3.35367232     -0.29847181      0.87670895
H      -3.35334351     -0.29908191     -0.87710246
H      -2.42730299     -1.54068601      0.00041017
H      -1.74282709      1.47961489     -0.00057006
H       0.71043467      1.55480366     -0.87649089
H       0.71074071      1.55452020      0.87707959
H       2.95608444      0.86443981     -0.00023422
H       1.39675126     -1.53659479     -0.00001797
