13
b3lypvtz=-156476.78944766
C      -2.04949184     -0.78694054      0.02886252
C      -1.36301199      0.35112205      0.11811087
C       0.08084802      0.48713485     -0.08787746
C       0.69115030      1.68216974     -0.05321126
N       0.77522075     -0.69482963     -0.41395485
C       1.79061189     -1.03273060      0.25632936
H      -3.11755105     -0.80762133      0.19621677
H      -1.56497972     -1.71927573     -0.22593641
H      -1.87763182      1.27336717      0.36356787
H       0.12404377      2.58470214      0.12507865
H       1.74698350      1.78412430     -0.25857824
H       2.14655629     -0.47089542      1.12609038
H       2.34636590     -1.92137299     -0.03360120
