12
b3lypvtz=-192212.88507933
C      -1.35783268      0.07730945     -0.09794414
C      -0.20712766      0.09085104      0.92189003
C       0.75326249      0.59815395     -0.19016541
C      -0.12221851     -0.55162990     -0.76279193
O       0.14035612     -1.30290235      0.50391230
O       2.11682753      0.38795400     -0.04117367
H      -1.71695279      1.03283157     -0.48048588
H      -2.15743862     -0.62201602      0.12838791
H      -0.21856790      0.30183507      1.98849022
H       0.59195938      1.60146456     -0.58096759
H      -0.03308682     -1.10312718     -1.69562299
H       2.21081947     -0.51072419      0.30647115
