14
b3lypvtz=-167324.62776966
C       2.64655257     -0.19639771      0.00950090
N       1.46993316      0.28759242     -0.03022073
C       0.36283363     -0.54005613     -0.00655635
C      -0.88172665     -0.00376023     -0.00051666
C      -2.11396500     -0.85356309     -0.00676974
N      -1.08907064      1.35478877      0.07625559
H       2.84816369     -1.27130837      0.07559074
H       3.50063412      0.47260552     -0.02225702
H       0.48903777     -1.62066700      0.01763493
H      -2.73911264     -0.62536379     -0.87560451
H      -1.86118697     -1.91103544     -0.04023183
H      -2.71747779     -0.66527609      0.88459112
H      -0.26092325      1.91123799     -0.07729215
H      -1.92865099      1.71393017     -0.34716829
