10
b3lypvtz=-191500.32442717
C       0.03654520      0.22809148     -0.32326311
C      -1.24396607     -0.12506149     -0.20798966
O      -2.18383032      0.29955489     -1.11105817
C       1.07307050     -0.19524940      0.60718966
C       2.34160243      0.14166682      0.51483326
O       3.46635962      0.43111316      0.44650242
H       0.32140895      0.86328055     -1.15274745
H      -1.60029817     -0.75858973      0.59725628
H      -3.04334045     -0.05245257     -0.86882319
H       0.83244832     -0.83235369      1.45013877
