14
b3lypvtz=-167282.83509904
C       0.81744880      0.69917935      0.67190696
C      -0.31390237      0.01536216     -0.09732450
C       0.72915849     -0.88295833     -0.75766606
N       1.71183107     -0.41695876      0.26217235
C      -1.67179184     -0.30295941      0.37494876
N      -1.45324294      0.61345590     -0.76772856
H       1.08126903      1.67382973      0.24341720
H       0.69957992      0.80632230      1.75263672
H       0.54765961     -1.95918625     -0.74152245
H       0.94582599     -0.56844656     -1.78377079
H       2.60103381     -0.12112466     -0.11832812
H      -1.99039846      0.11373818      1.32390562
H      -2.13060326     -1.24935903      0.11507996
H      -1.57386785      1.57910537     -0.47772710
