13
b3lypvtz=-203086.89690933
C       1.25736180     -1.24582310     -0.45076632
O       0.76090681     -0.56263992      0.70447235
C       0.03955303      0.61862991      0.45503032
O       0.73067988      1.54621766     -0.34851639
C      -1.31025450      0.37528019     -0.21105805
N      -2.00740208     -0.67039438     -0.09828048
H       1.77565990     -2.12542028     -0.07678603
H       1.95500181     -0.62055840     -1.00880790
H       0.45044317     -1.55780691     -1.11734445
H      -0.13908407      1.03179376      1.45486064
H       1.49737016      1.86261769      0.14082870
H      -1.69053075      1.21224093     -0.79801358
H      -1.51675216     -1.35674312      0.48294719
