13
b3lypvtz=-179786.75213491
N      -2.21366511     -0.51505794     -0.20791032
C      -0.86925010     -0.09857480     -0.42526850
C      -0.40014212      1.21931757      0.02748421
C       0.18754300      0.00017156      0.72673501
C       1.55926922     -0.40849508      0.41012788
O       2.14449911     -0.11181857     -0.61055014
H      -2.29297682     -1.51688520     -0.08901477
H      -2.63961140     -0.05883338      0.58783917
H      -0.44029710     -0.46550744     -1.34900563
H       0.28357691      1.76248240     -0.60979408
H      -1.07714237      1.82856589      0.61242491
H      -0.17706553     -0.23796043      1.71697731
H       2.04803931     -1.05548558      1.16671595
