15
b3lypvtz=-185557.50961557
C      -2.80876330     -0.44550527     -0.35906612
C      -1.65604359     -0.37351464      0.29447988
C      -0.77871441      0.84423820      0.35534927
C       0.59151219      0.67862703     -0.32974751
C       1.48550229     -0.34386402      0.34264425
F       2.73197764     -0.36702710     -0.28829737
H      -3.20527688      0.40328844     -0.90479667
H      -3.40009682     -1.35163538     -0.37101294
H      -1.30841080     -1.25198702      0.83095236
H      -1.29964399      1.68358052     -0.10921858
H      -0.61568251      1.12075767      1.40338151
H       1.11218895      1.63895967     -0.32223712
H       0.44997704      0.39575870     -1.37505137
H       1.65605852     -0.09362491      1.39330613
H       1.07653264     -1.35395690      0.28197429
