15
b3lypvtz=-157239.51202117
C       2.83143191     -0.56442503      0.05880799
C       1.87850691      0.35871505      0.08431015
C       0.53002391      0.23044069     -0.55702183
C      -0.61507722      0.31907633      0.46320157
N      -1.89917613      0.35718651     -0.21604145
C      -2.74759699     -0.53350860      0.05739448
H       3.78702996     -0.40806768      0.54188414
H       2.69211605     -1.50951166     -0.45363359
H       2.06556239      1.29135029      0.61134328
H       0.45955613     -0.71471592     -1.09992128
H       0.38428563      1.03121353     -1.28817590
H      -0.51563211      1.25274663      1.02475675
H      -0.54565582     -0.51104292      1.18059572
H      -2.57066243     -1.33426997      0.78725317
H      -3.71349521     -0.52471024     -0.44340920
