10
b3lypvtz=-217421.18916971
C      -2.18263301     -0.37244289     -0.00019748
C      -0.91068072      0.00766098     -0.00012198
F      -0.57170672      1.29285864      0.00002628
N       0.18866966     -0.84947687     -0.00018512
C       1.54138073     -0.55950370     -0.00014303
O       2.05562443      0.52682168     -0.00002272
H      -2.96229683      0.37095129     -0.00013437
H      -2.45080567     -1.41712993     -0.00032277
H      -0.04408114     -1.82954802     -0.00028423
H       2.12035226     -1.50062019     -0.00020858
