11
b3lypvtz=-197515.90880788
N      -1.42613008      1.47295689      0.91213811
C      -0.84249594      0.62973852      0.15480363
N      -1.31042316      0.08860135     -1.02398097
N       0.47324834      0.25513696      0.56473767
N       0.99291882     -0.62182523     -0.15632031
N       2.19575564     -1.01612205      0.26474499
H      -2.35292443      1.70204145      0.55651988
H      -2.30529926      0.10410331     -1.16474741
H      -0.83010117     -0.72957579     -1.36164260
H       2.65532382     -0.41928500      0.94510700
H       2.75012742     -1.46577042     -0.44286000
