11
b3lypvtz=-176572.53916572
C      -2.96286178     -0.45887049     -0.11373988
C      -1.89693677      0.07878934     -0.01141921
C      -0.60390504      0.73812178      0.14256889
N       0.49338189     -0.21388007      0.08539357
N       1.69124416      0.26716507     -0.25689646
N       2.64392000     -0.47178536      0.07040709
H      -3.90715974     -0.93343259     -0.21253131
H      -0.60169585      1.30828830      1.08038588
H      -0.44346551      1.45392163     -0.66503919
H       0.49815252     -1.00503737      0.72426046
H       3.48398714     -0.01813424     -0.29271384
