16
b3lypvtz=-168077.33696741
C      -2.21278627      1.04886842     -0.11309146
C      -1.90535145     -0.39963422      0.27415438
N      -0.64418014     -0.93567465     -0.23750070
C       0.54512744     -0.40912161      0.29851801
C       1.61971499     -0.02009613     -0.39378051
N       2.81786363      0.49336475      0.15345486
H      -3.15682299      1.37725426      0.32766865
H      -1.42418261      1.72100629      0.22786288
H      -2.29658373      1.15387005     -1.19742572
H      -1.87905480     -0.49227828      1.36319623
H      -2.70773497     -1.05548151     -0.07145190
H      -0.62921116     -0.95763486     -1.24892322
H       0.55896575     -0.38408454      1.38495448
H       1.60273918     -0.02933786     -1.47852840
H       2.86745395      0.38085468      1.15726089
H       3.64458819      0.08280720     -0.26055546
