13
b3lypvtz=-177401.57266709
C       1.48825335      1.08885108      0.41897166
C       0.74561816      0.05358125      0.00310055
N       1.25338145     -1.15444295     -0.44552700
C      -0.75188419      0.15617099     -0.02593972
N      -1.42351606      1.15724824     -0.43540368
N      -1.41252975     -0.99889553      0.37968822
H       2.56896520      1.04407683      0.43100744
H       1.01640400      1.99317031      0.76778607
H       2.18218090     -1.41454298     -0.16307401
H       0.60414896     -1.91179390     -0.56264510
H      -0.80275790      1.86865622     -0.81044470
H      -1.01305914     -1.48134623      1.17069827
H      -2.41138499     -0.86877232      0.45088699
