13
b3lypvtz=-179791.52792126
C      -1.28017679      1.33019071      0.13029281
C      -0.80344131      0.12514485     -0.14439148
C      -1.40401522     -1.18797912      0.23990004
O       0.34359719      0.00025998     -0.93780430
C       1.56220359     -0.10953971     -0.32201586
N       1.86695595      0.00991320      0.89107467
H      -0.77405460      2.22145450     -0.21138948
H      -2.19719053      1.44352985      0.68965889
H      -1.64865674     -1.76409641     -0.65518408
H      -0.69770900     -1.78301590      0.82324282
H      -2.31001332     -1.04660130      0.82602645
H       2.31284895     -0.32414392     -1.07629928
H       1.06391582      0.23898227      1.47670480
