14
b3lypvtz=-167297.5387065
N      -2.23361083     -0.69848633     -0.01333831
C      -1.64005698      0.55353353      0.07596110
C      -0.32355582      0.78358613      0.06193391
N       0.59175032     -0.28764770     -0.13773739
C       1.77170222     -0.33588926      0.73489256
C       1.90214431      0.05296858     -0.68967647
H      -1.59874439     -1.41201832     -0.34317718
H      -3.12366270     -0.71915550     -0.48490286
H      -2.32207369      1.38078186      0.22540931
H       0.06249099      1.78820840      0.21749084
H       1.87198957      0.44639936      1.47922972
H       2.06829099     -1.32394289      1.06423675
H       2.30106389     -0.64536202     -1.41502280
H       2.09453611      1.09830615     -0.90855616
