14
b3lypvtz=-190617.17865033
N       2.09317710     -0.66044082     -0.24522354
C       0.70869883     -0.85483492      0.20881598
C      -0.10868516      0.40599394      0.03249020
N       0.63852888      1.60327946      0.16252151
C      -1.43430965      0.39533006     -0.12049692
O      -2.25910701     -0.71016216     -0.09993115
H       2.54855195     -1.55515000     -0.37060257
H       2.61864862     -0.16134731      0.46256370
H       0.27582220     -1.65283225     -0.40014666
H       0.65123665     -1.18486821      1.25788172
H       0.06606756      2.42940225      0.05479771
H       1.39630337      1.62775419     -0.51020450
H      -2.00847426      1.30280384     -0.25061036
H      -1.74863308     -1.49773408      0.10933789
