13
b3lypvtz=-203096.50843429
N       0.89895760      1.51328596      0.06219163
C       0.08253108      0.38695149     -0.35217209
C       0.79937231     -0.92647415     -0.11004403
O       1.96288132     -1.00253911      0.19970615
C      -1.26452280      0.40161023      0.38582155
O      -2.09611954     -0.60190383     -0.18858105
H       0.89632446      2.25337142     -0.62473504
H       1.85528672      1.20240983      0.19500945
H      -0.15665425      0.38584812     -1.42707281
H       0.17648063     -1.82841235     -0.23542241
H      -1.09347181      0.22847171      1.45401594
H      -1.70128290      1.39887576      0.27518343
H      -2.91210983     -0.65999307      0.31517429
