12
b3lypvtz=-168957.77587546
C       0.41836940      1.22416574      0.05540316
C      -0.86155715      0.88511237     -0.09707536
C      -1.29718405     -0.55064908     -0.15592124
O      -0.21888245     -1.51342112     -0.03228792
C       1.05613549     -1.08931328      0.11956129
C       1.43696963      0.19053294      0.17020229
H       0.71065509      2.26534775      0.09513625
H      -1.64408680      1.62825273     -0.18531170
H      -1.80367824     -0.76965905     -1.10299830
H      -2.01136806     -0.77819018      0.64378578
H       1.73463212     -1.92796082      0.19557765
H       2.48009504      0.43588199      0.29392809
