14
b3lypvtz=-167309.2689168
C      -3.11007937     -0.13724613      0.00777484
C      -1.72416720      0.42211977     -0.00102909
C      -0.60104034     -0.30349310     -0.00047668
C       0.72934550      0.26466242     -0.00791210
N       1.76619145     -0.48495054      0.00188008
N       2.99534834      0.11152784     -0.07768210
H      -3.67010372      0.20590347      0.88288704
H      -3.10230955     -1.22742742      0.01585181
H      -3.67519933      0.19264994     -0.86911992
H      -1.64259948      1.50636772     -0.00979500
H      -0.64727281     -1.38770947      0.00643890
H       0.81869455      1.35781684     -0.02475588
H       3.04118098      1.06329681      0.27852815
H       3.70091198     -0.48061414      0.33200896
