8
b3lypvtz=-209236.98838503
C       0.63796952      0.13046077     -0.40167728
N      -0.31737655      0.99899612     -0.68497494
N      -1.39102491      0.25119494     -0.43058886
N      -1.13711543     -0.97253403     -0.02561401
N       0.16803012     -1.07237043      0.00058915
O       1.93409631      0.42490206     -0.50648959
H      -2.33075004      0.59778440     -0.54048641
H       2.43617097     -0.35843385     -0.24876634
