10
b3lypvtz=-214833.2072117
C      -0.12515121     -0.55819779     -0.43620001
C      -1.05373690      0.26035305      0.06698967
O      -2.36484787      0.10273498     -0.21218924
C       1.29900151     -0.41331576     -0.15206565
O       2.16453346     -1.13578744     -0.58842306
O       1.59322566      0.63552755      0.67245491
H      -0.39742749     -1.37644225     -1.08637567
H      -0.78754272      1.08311929      0.71958701
H      -2.88241245      0.77888334      0.23461534
H       2.55435799      0.62312500      0.78160672
