15
b3lypvtz=-180540.0661012
O      -2.08344915      0.74437988      0.14731408
C      -1.61096868     -0.48223877     -0.37720956
C      -0.09334924     -0.56161716     -0.32365626
C       0.62372515     -0.35880728      1.03436063
C       1.55141858      0.62731689      0.29225311
N       0.56125796      0.68431846     -0.81381532
H      -1.46602374      1.41268140     -0.18601677
H      -2.05208552     -1.28744072      0.21522912
H      -1.94289986     -0.61609646     -1.41704260
H       0.25019591     -1.46892959     -0.83452530
H      -0.01958795      0.13305884      1.76069323
H       1.08599706     -1.23468181      1.48281839
H       2.50322358      0.16846066      0.00663486
H       1.75194505      1.58967804      0.76508333
H       0.94060084      0.65001763     -1.75202096
