13
b3lypvtz=-179795.69703773
C       2.12766259      0.21363554     -0.30571352
C       0.98312308      0.08117922      0.35093265
C      -0.22201098     -0.64014726     -0.17149749
C      -1.43522362      0.25165407     -0.40303100
N      -1.48161359      1.51006562     -0.43074447
O      -2.59507906     -0.42888220     -0.62688767
H       2.96852800      0.74191403      0.12343436
H       2.26640440     -0.20287036     -1.29660060
H       0.88278612      0.51447105      1.34122368
H       0.01559669     -1.14332226     -1.11372608
H      -0.51105927     -1.42552978      0.53779887
H      -0.55838996      1.90385219     -0.27356058
H      -2.44082440     -1.37611987     -0.55812814
