16
b3lypvtz=-168052.68206371
C       2.67065373     -0.02933918      0.19495241
N       1.38754390      0.34284512     -0.38163977
C       0.30367077     -0.52145735      0.03863755
N      -0.95068994     -0.07987609     -0.54807108
C      -2.15681295     -0.54908492      0.11876663
C      -1.72849949      0.86681060      0.24803601
H       2.96931401     -1.01044809     -0.18135043
H       3.43086941      0.68685014     -0.11616709
H       2.67665044     -0.08101844      1.29590928
H       1.16321442      1.30321778     -0.14984283
H       0.21936748     -0.58622085      1.14703207
H       0.51164008     -1.53201616     -0.32508317
H      -2.04309637     -1.17911459      0.99600853
H      -2.97772628     -0.81913179     -0.53321529
H      -2.23173645      1.64792289     -0.30718319
H      -1.32585877      1.17159193      1.21028639
