13
b3lypvtz=-203125.39891399
C       1.45441290      1.03076540     -0.47128717
C       0.67360735      0.05404297      0.40083432
O       1.09937030     -1.29943849      0.21280326
C      -0.82539013      0.15631902      0.10265019
N      -1.39764861     -0.96576236     -0.38885325
O      -1.42172628      1.20021238      0.29852229
H       1.36117235      0.75935357     -1.52377306
H       2.51291267      1.02290140     -0.20131475
H       1.07092138      2.04011885     -0.33235481
H       0.78315099      0.33629770      1.45348356
H       2.05898472     -1.33165248      0.25886142
H      -2.38289214     -0.95958240     -0.58647267
H      -0.85427051     -1.80374456     -0.49740633
