14
b3lypvtz=-193015.25059522
C      -0.11626064      1.48610995     -0.90062060
C      -0.01895584      0.24140103     -0.45454289
C      -1.21237982     -0.63693698     -0.19214104
O      -2.41899458      0.04858965     -0.48584836
C       1.29578095     -0.42942572     -0.16132265
O       2.38013578      0.44551758     -0.42733894
H       0.76950271      2.07866584     -1.07408183
H      -1.08262831      1.92575451     -1.09704455
H      -1.12493615     -1.54874982     -0.80121415
H      -1.19372925     -0.95861074      0.85967169
H      -3.15486358     -0.54231405     -0.30725642
H       1.37388770     -1.34217985     -0.77030319
H       1.30482826     -0.75151559      0.89044947
H       3.19851276     -0.01630581     -0.22850655
