12
b3lypvtz=-189874.7839011
C      -2.12620993     -0.61757092     -0.00017036
N      -0.68331249     -0.64014668      0.00028157
C       0.08662126      0.47448722      0.00006085
N      -0.24570041      1.71333744     -0.00002586
C       1.56514213      0.19199932     -0.00008052
O       2.02523765     -0.92311170     -0.00018293
H      -2.49828864     -1.63930953     -0.00026640
H      -2.52092892     -0.11033802      0.88546123
H      -2.52040695     -0.11033443     -0.88603988
H      -0.18578850     -1.51613623     -0.00010571
H      -1.25543492      1.84861464      0.00004021
H       2.18537071      1.10290689     -0.00010520
