13
b3lypvtz=-156455.60686135
C       2.30671631     -0.91372638     -0.06164812
C       1.24858546     -0.37220235      0.09624792
C      -0.03364892      0.30357038      0.30820312
C       0.04447350      1.78761507     -0.07844850
N      -1.06866353     -0.34702940     -0.50695001
C      -2.02787350     -0.89382265      0.09999027
H       3.23968943     -1.39798806     -0.20732009
H      -0.28096290      0.22948123      1.37812708
H       0.82654285      2.28633743      0.49299073
H       0.26534794      1.88433957     -1.14013091
H      -0.90930637      2.27377432      0.12713355
H      -2.81764759     -1.37089189     -0.47585554
H      -2.11920769     -0.92137928      1.19306951
