13
b3lypvtz=-177368.0543426663
C       0.13367582      0.90666771     -0.29340267
C      -1.13215208      0.17631686      0.18131821
N      -1.04320639     -1.25360795     -0.11090784
C       1.39488786      0.52320753      0.42856966
N       2.11404698     -0.47797169      0.03923399
N       2.75601398     -1.33888525     -0.32878884
H      -0.01462340      1.98232786     -0.17015965
H       0.25662844      0.73831144     -1.36780828
H      -2.00616955      0.66926886     -0.27020121
H      -1.22522547      0.29338533      1.26306431
H      -1.17071328     -1.42661914     -1.10142053
H      -1.76559764     -1.77099717      0.37333720
H       1.70243471      0.97859560      1.35716565
