14
b3lypvtz=-193026.36846295
O       1.95761427     -0.50338077     -0.03414869
C       0.76052562     -0.08979609     -0.68540596
C      -0.44771061     -0.98000814     -0.32159403
C      -1.15222866     -0.19567609      0.81101306
O      -0.35121645      0.96951546      1.05278156
C       0.29385281      1.27270676     -0.18289232
H       1.84049482     -0.35651563      0.91187459
H       0.98417116     -0.10051271     -1.75073887
H      -1.10761146     -1.11091057     -1.17934258
H      -0.10141760     -1.96363105     -0.01051866
H      -2.16236673      0.10698116      0.51433970
H      -1.22091556     -0.74549437      1.74845737
H       1.11489341      1.95877381      0.01560927
H      -0.40818504      1.73784821     -0.88923444
