14
b3lypvtz=-167226.57448841
C       0.94292482      1.26473249     -0.42472034
C      -0.41056741      0.57936182     -0.01860439
C       0.36381259     -0.65700489      0.04907599
N       1.64120411      0.14559119      0.38026936
C      -0.99119276     -1.34106159      0.44094398
N      -1.60813157     -0.23788254     -0.44260107
H       1.14411734      2.27573397     -0.07124308
H       1.21129351      1.16016551     -1.47353057
H      -0.59109500      0.94142275      1.00394504
H       0.56429878     -1.02087465     -0.95889252
H       1.61191996      0.43108991      1.35795700
H      -1.17920275     -2.35355967      0.08772439
H      -1.26205615     -1.23573528      1.49441752
H      -2.49172550      0.11422096     -0.08414130
