12
b3lypvtz=-192241.92911687
O       2.70501551     -0.28038771     -0.43065285
C       1.40829030      0.14955572     -0.43065287
C       0.54073646     -0.22662809      0.50235356
C      -0.86808665      0.22537850      0.51484773
C      -1.88146323     -0.26726397     -0.43454225
O      -1.31217654      1.03852982     -0.57584656
H       3.17725733      0.12951022     -1.15938963
H       1.11481110      0.81797905     -1.23149222
H       0.86262783     -0.87545122      1.30872364
H      -1.23764834      0.55878549      1.48283736
H      -2.92944849     -0.28411397     -0.15080561
H      -1.58001526     -0.98589383     -1.18938031
