12
b3lypvtz=-187433.18456075
C      -2.64944542     -0.33671922     -0.00017726
N      -1.20272117     -0.32959784      0.00000028
C      -0.44613265      0.77873285     -0.00007446
N       0.85074228      0.87766023     -0.00001925
N       1.43995274     -0.37822932      0.00004785
N       2.68069403     -0.30514772      0.00013875
H      -3.01331802      0.68987439     -0.00032024
H      -3.04566890     -0.83709340      0.88615076
H      -3.04544922     -0.83726042     -0.88650951
H      -0.69864815     -1.20319592      0.00005061
H      -0.99901736      1.71386411     -0.00017500
H       3.00715785     -1.27844275      0.00034646
