10
b3lypvtz=-212443.8971816
N      -2.41675070     -0.44555583     -0.16303989
C      -1.20567818     -0.33519193     -0.51017046
N      -0.13435043      0.05431199      0.29236576
C       1.15765978      0.14800370     -0.17161964
O       1.52558698     -0.08642272     -1.29397177
O       1.97465036      0.54886838      0.83430672
H      -2.56752250     -0.21214852      0.81975634
H      -0.89937005     -0.55207222     -1.52870663
H      -0.29857952      0.28140363      1.26108483
H       2.86445426      0.59880352      0.46009474
