13
b3lypvtz=-177392.85566316
C      -2.11588000     -0.72634378      0.12765786
N      -1.47133953      0.30612910     -0.21518514
C      -0.05310165      0.28068450     -0.06054163
N       0.43098155      1.55065246      0.14501718
N       0.61117990     -0.80305762     -0.11762483
C       2.05181003     -0.72507529      0.01082394
H      -1.63105595     -1.60936888      0.54706643
H      -3.19352154     -0.73819182     -0.01410066
H      -0.18961666      2.30225411     -0.10211746
H       1.41273153      1.71997858      0.01533848
H       2.36295065     -0.33870289      0.99046933
H       2.50794571     -0.08142390     -0.75604751
H       2.48080996     -1.71906757     -0.10577298
