15
b3lypvtz=-157252.39716893
C      -1.41321574      1.37526725     -0.06175474
C      -1.02315751      0.09780982     -0.07853414
C      -1.95449033     -1.06325344      0.12275828
N       0.29502886     -0.28713217     -0.38506610
C       1.26734845      0.15541881      0.29435829
C       2.68722963     -0.17336585     -0.03186314
H      -0.71901922      2.17881533     -0.26538790
H      -2.44811512      1.63809072      0.10507046
H      -1.63787641     -1.66680437      0.97743999
H      -1.93439149     -1.71667236     -0.75168825
H      -2.97561123     -0.72691235      0.29274348
H       1.09518112      0.80703493      1.16102967
H       2.73980747     -0.82623257     -0.90052796
H       3.25067502      0.74222102     -0.23287274
H       3.17369750     -0.65870578      0.81866280
